  824
# Step    60000,  Time   60000.0000 fs
Al     6.24648769   10.58219843    8.24105940
Al     3.40743841    0.68136950    9.54176654
C      4.59652370    8.28196584    8.99731957
H      0.32182421    0.43060778    9.91118610
H      4.44056647    8.86967876    7.06581349
H     -3.87360217   10.13761166   13.48984830
H      5.17629613    7.46125332    9.33334086
H      3.56785988    8.04518479    8.57052673
H      4.25974692    9.05355978    9.70579314
H      9.61433428    3.49748316   12.74867268
H      9.84353380    2.51155353   40.39078939
H     -3.20778787    9.05680397   40.98457117
O      0.37642252    0.56128945    8.92935838
O      7.30308511    9.88984519    9.48981736
O      5.13083482   11.41649759    9.20773749
O      2.39453063    2.06827646    9.34920048
O     -3.32674592   11.98696518   11.05420965
O      5.23760236    9.01886032    7.82597683
O     -4.35516034    9.29978739   10.86231841
O      6.61764735   10.97198640    6.64203914
O     -3.60844051   11.66108073    8.27672945
O     -4.30031627    9.09033049    8.10802031
O      4.99349781    1.28066245    9.52385188
O      7.93053817    7.43308030    9.66774717
O      2.46309259   10.82349212    9.46144533
O      9.90530689    0.81335272    7.94211954
O      1.45817840    1.69452604    6.86779798
O     10.14975165    0.83080136   10.72079565
O      0.20504496    3.22434441    8.57731927
O     -1.76008488    9.93161031   10.57543159
O     -3.02088119   10.07488881   13.04080421
O     -1.72767098    9.75856708    7.73139503
O      0.03414131    0.55827832    4.79256129
O     -3.63693308   10.48750185    5.91187599
O      0.25608767   11.81698720    8.57595378
O      0.28903744    9.28536555    9.22480313
O     11.47564186    2.92853671    7.61481150
O      7.04034261   10.05931150    4.06581208
O      4.84862255   11.53123387    4.74463115
O     11.98586313    2.70717148   10.28108890
O      7.18116887    2.23347919    9.01745437
O      5.55262158    1.32451110    6.99113544
O      7.47773193    4.85293052    9.09410915
O      8.90317065    3.31050515    7.43847149
O     -1.92903405    7.59577263    9.41764503
O      9.91467047    5.90648772    9.03033567
O     -1.50287582    5.05056768    8.88424553
O      1.64625317   10.06092992    7.11071887
O      2.34468432    1.90242017    4.46641072
O      0.14568235    3.10081877    4.99345478
O      7.98768060    6.58688584    7.06479279
O     10.02691980    1.90332848    5.62865708
O      9.29198055    3.30893754   10.09427569
O     -4.20710375    8.96839278    3.77606809
O     -3.66444413   11.59324036    3.51734853
O     -2.11263944    6.72271921    7.02288499
O      2.40325804   10.52485759    4.46033993
O      7.45394581    7.48563854    4.81166105
O      9.78941143    0.72118777    3.36999352
O      0.28637653   11.70075277    5.43295540
O      4.84800724    1.21232614    4.40506385
O     -1.79223953    9.92914920    3.98401900
O     11.72666844    2.61216883    3.72001864
O      7.62978524    7.99483358    2.29039973
O      3.97269062   10.52274113    2.40632891
O      7.04247870    2.27163311    5.05380529
O      0.45806772    8.88704464    5.07032340
O      9.85782010    6.33254999    5.06562233
O     -1.69354981    4.90873131    5.12951796
O      9.19357248    3.28091171    3.64306976
O      7.48788028    4.84034910    5.14184896
O      3.50442052    1.49248036    2.07585714
O     -0.48350713    4.70609122    2.87776577
O     -1.74743860    7.42001557    4.50222192
O     -0.37175822    8.32233781    2.48507696
O      5.03873388    8.12217258    2.05977022
O      6.75264757    3.60789927    2.80381574
O      6.30302180    5.87007457    1.66160882
O      1.68336657    3.52143958    2.14668863
O      2.31040950    8.60749155    2.06818623
O      6.55685505    7.85760909   53.89776523
O      3.82889295    9.31460575    0.02500000
O      4.27054009    4.12490400    1.82989388
O      1.35469709    6.22889970    1.75512966
O      2.97110705    2.73939425   53.91300000
O      0.19390532    4.52001625    0.12871080
O      0.56769730    8.18269892    0.09820658
O      6.14010564    3.65810314    0.12425234
O      4.99726875    8.25124115   51.87183671
O      5.53133279    5.82776424   52.56105102
O      2.43047039    7.94882018   52.27974070
O      2.19577495    4.38595348   52.06301352
O      7.39437894    7.36784301   51.28769510
O      3.54334453   10.28333927   51.72025621
O      4.59194429    3.49084463   52.00584327
O      0.51435282    6.18314157   52.14484675
O      2.54636335    1.83832377   51.35902944
O     -0.39482572    3.74823152   51.74019257
O      7.08084733    4.00844517   51.52810040
O     -0.02958526    8.70181760   51.47029876
O      6.49643200    8.81645963   49.04826875
O      4.45829499   10.33443327   49.42543425
O      8.62119276    7.29594559   48.83659670
O      2.08007917   11.30853701   49.65966897
O      1.92534750    0.63552152   49.14545539
O      4.37218480    1.51955383   49.67729730
O     -0.27450245    2.07722031   49.58079872
O     -0.73571834    4.56832303   49.18125819
O      8.41723153    4.79082617   49.60066563
O     -0.07426114    9.80850980   49.07810508
O      6.48827640    3.02831095   48.96643911
O     -0.50768065    7.22696219   49.24832941
O     -5.07830992    9.46940658   50.39308739
O     10.62247126    0.56563240   50.69255996
O     -3.14309032   11.35881165   50.73206171
O     11.17923379    3.11015517   50.39377919
O     -2.42163542    8.73784882   50.40218246
O      8.66736962    2.25889346   50.36244691
O      6.80368425   11.59970253   48.78297633
O      6.56037405    0.36969176   48.79449282
O     -2.92367232    6.00007953   49.19006633
O      5.49986115   10.13620799   47.00481157
O      9.35182638    5.18612629   47.20404347
O      1.37818331   10.89506763   47.22753724
O      0.45559584    1.36355455   47.16440268
O      5.00541531    1.80706964   47.15688354
O     -1.37861831    6.17982571   47.08187585
O     -3.37031756   10.11959296   48.37345815
O     10.26275616    1.78642047   48.27848545
O      6.73350371   11.68816019   45.41683982
O     -0.47203619   12.02216544   45.52122839
O     -3.21228093    6.27244469   45.04295383
O      6.62643629    9.04394644   44.71522980
O      4.41701099   10.56668530   44.65840384
O      8.08648933    7.03135420   45.59497432
O      1.83162313   11.57074950   44.57056070
O      8.11750011    4.64031003   44.92241049
O      0.28470501    9.52001508   45.07132141
O      1.56299879    1.18582303   44.73734730
O     -0.76932740    2.08236325   44.95633070
O      6.25370080    2.61003822   44.97404457
O      4.21951920    1.19660223   44.72829825
O     -0.88034790    7.30705120   44.83262061
O     -1.04804347    4.69140488   44.87016854
O     -4.96440612    9.37829746   46.49384991
O     -2.33299689    9.10387755   46.20915222
O     -3.67026242   11.61344989   46.26559485
O     10.47630227    0.58789093   45.90409017
O      8.30189113    2.26555473   46.45036335
O     10.91390172    3.12710790   46.18982129
O     -4.49218072    8.77790029   43.90557720
O     10.29461062    0.55726442   43.12484548
O     -1.95796940    9.31956949   43.52335689
O      8.46844723    2.36951874   43.71044492
O     -3.81267061   11.31491817   43.59672518
O     11.01682837    3.08114047   43.42523818
O     10.42891091    2.88215745   12.39588010
O     -3.47555336    9.89273787   41.48799506
O      9.44112714    2.30153227   41.30935072
Si     8.57916581    8.94831299    9.50173283
Si     3.62602292   12.07709061    9.34475927
Si     1.13319351    1.93433320    8.44670645
Si    -3.15826855   10.44030379   11.31665885
Si    -3.31103112   10.29681332    7.49968253
Si     6.42995868   11.25774917    5.11671030
Si     6.11635403    1.10902101    8.49086556
Si     1.11849757   10.49022901    8.57028110
Si    -1.31489484    9.10497270    9.22190375
Si     0.96819059    1.74681112    5.31992756
Si     8.29005397    6.20936202    8.67591436
Si    -1.37057073    3.49544473    8.84734439
Si    10.03677721    2.21176656    7.14025931
Si    10.48982029    2.48479693   10.85290713
Si     8.23502775    3.42407466    8.89084201
Si    -2.35789114    6.33438179    8.53830373
Si    -3.35780224   10.23469172    4.35021520
Si     7.88829165    8.69284145    3.77328831
Si     3.57628989   11.35528843    3.70762185
Si     6.07039633    0.95071083    5.47565040
Si     1.14751092   10.28300679    5.49348103
Si     3.42581589    0.98893844    3.64891707
Si    10.21139507    2.12287806    3.98666604
Si     8.23631256    6.24147696    5.52040814
Si    -1.05213152    3.79085562    4.15630342
Si    -2.36339163    6.34635650    5.49759022
Si    -0.80382241    8.62463316    3.99542612
Si     7.64829280    3.46372279    4.18902048
Si     6.31488604    7.43704996    1.46276781
Si     3.76719529    9.10980439    1.64531442
Si     3.06180389    3.01430419    1.50269397
Si     0.65385196    4.68549921    1.68109215
Si     0.94203320    7.79898625    1.57001736
Si     5.89032635    4.30571128    1.60911157
Si     6.14833182    7.30709915   52.42341324
Si     3.71234505    8.87726341   52.46938005
Si     3.08138982    3.02112452   52.33703688
Si     0.66916859    4.65612589   52.55093622
Si     5.90765143    4.18948727   52.60979832
Si     0.80423319    7.74134231   52.50525142
Si     7.77627557    8.18045416   49.93836020
Si     3.48529239   11.20604988   50.43573147
Si     3.10012134    0.74719024   50.25795989
Si    -0.96790590    3.37382238   50.26290536
Si     7.61275257    3.47642137   50.03689506
Si    -0.78632872    8.68079367   50.03349926
Si     5.81367526   10.26719017   48.57167499
Si     9.30639306    5.81995773   48.71066298
Si     0.74584266   11.13861158   48.74500837
Si     0.43750269    0.93440306   48.67549643
Si     5.60650112    1.66218202   48.65852927
Si    -1.40992534    5.99121902   48.71617223
Si    -3.54917389    9.91252531   49.96174939
Si    10.12365396    1.97282151   49.86824237
Si     5.82985969   10.34820317   45.42573980
Si     9.06809860    5.77426305   45.67996651
Si     0.73414070   10.94583067   45.72359610
Si     0.23369569    1.04352295   45.64187418
Si     5.45169100    1.32961157   45.65629340
Si    -1.64207272    6.04759611   45.47857454
Si    -3.54690873   10.11997047   46.78070183
Si     9.92503487    1.92003757   46.70059906
Si     8.15891107    8.60991663   45.13539253
Si     3.41215291   11.89373507   44.52865613
Si    -1.27127066    8.89999447   44.88440272
Si     7.79662710    3.02326051   45.07013256
Si     2.89687922    0.25012220   44.80029377
Si    11.89913361    3.27786154   44.77489843
Si    -3.44357513    9.76100882   43.08791778
Si     9.86910609    2.10595508   42.74323296
C      7.02258285    0.14639516   12.32243390
H     -0.47885406    5.39330710   14.09638812
H      8.78797559    0.57709229   13.27533005
H      6.07153248   -0.21686627   12.68163821
H      7.24168198   -0.34526764   11.34072312
H      6.98605759    1.23745438   12.08566819
O      8.07421015   -0.16103950   13.31353945
C      1.34217521    5.38844143   10.91731812
H      1.39596667    5.13864438   13.06687543
H      2.24837131    5.12749868   10.33126521
H      0.85892765    6.29799667   10.65547351
H      0.80082757    4.50129147   10.86186987
O      1.96265464    5.55994259   12.22885548
C      2.19945740    4.40331767   48.78255485
H      2.99275046    6.00009335   49.22197379
H      1.40470666    4.08713149   48.02082488
H      2.20971098    3.76227302   49.70519289
H      3.07438245    4.06472857   48.27662206
O      2.12980658    5.79639547   48.92594399
C      0.55352814    0.93092549   21.39161202
H      0.51688302    1.30238185   23.44189920
H     -0.25382731    0.75173760   20.64190375
H      1.21258997    0.08368094   21.47032282
H      1.13543930    1.66702486   20.76452653
O      0.06508749    1.66116873   22.55885301
C     -0.14386201   12.59635552   41.41427854
H      1.72515073   12.18292306   41.10198348
H     -1.06501552   12.08960636   41.55658120
H     -0.23389418   13.37773531   40.54794206
H      0.00658908   13.17066584   42.34818152
O      0.87502651   11.65407656   41.04022839
C      6.73161853   11.18426912   52.14499849
H      7.04184978   12.90403341   53.06665554
H      7.40419083   10.28895938   52.34933389
H      5.82782936   11.11893199   52.67409975
H      6.45817481   11.02861202   51.05900759
O      7.53300756   12.28591014   52.43807156
C     -3.44862803    6.33561468    1.52050249
H     -2.29360030    5.78613206   -0.06232899
H     -3.84154470    5.82106539    2.42204405
H     -2.70884641    7.12640493    1.90323595
H     -4.26894035    6.84955466    1.03931538
O     -2.86478783    5.36536289    0.69449378
C      4.95945359    7.55919581   25.57946588
H      3.68190575    6.44382259   26.75957780
H      5.71713071    6.81466232   25.29296267
H      5.25706699    8.23102248   26.35493796
H      4.59805283    8.30443143   24.74236362
O      3.66257606    6.98146484   25.96509202
C      0.07149652    5.57430897   42.05946814
H      1.86735442    5.67670120   42.48248314
H      0.06469059    5.05216022   42.99293719
H     -0.70006840    5.15229697   41.43766097
H     -0.38286572    6.56716779   42.32780352
O      1.34326613    5.62916995   41.58289855
C      5.44418270    8.21054861   30.24088418
H      7.12659734    7.36405506   29.43753086
H      4.79062668    8.20118343   29.32225995
H      5.28190040    9.14338594   30.85338017
H      5.15419058    7.35898266   31.01134562
O      6.88826195    8.16818802   30.10953187
C      4.26517808    3.74680222   30.52672100
H      2.26022916    3.13871883   30.37499254
H      4.84566709    2.97733790   31.09989943
H      4.11184162    4.63712821   31.30539723
H      4.93568650    4.20194109   29.71124034
O      3.00858785    3.35916562   29.78079108
C      1.72128558    0.70208757   25.68939285
H      2.15933603   -0.65630643   24.37569612
H      1.46382645    0.06205962   26.64059128
H      2.78587033    0.81872749   25.82141886
H      1.27202496    1.65949757   25.78539605
O      1.27411001   -0.10626712   24.60843192
C      1.83594256    5.60760346    5.94700638
H      2.68333693    6.14480877    7.63539524
H      1.50468718    4.66204123    6.32349585
H      1.13802836    6.12565322    5.24761306
H      2.79011239    5.49493505    5.40290948
O      2.14783713    6.57759610    6.95138562
C     -0.20590941    4.74561300   22.82481718
H     -1.52392977    6.21180949   22.82749035
H      0.09343562    4.97436131   21.83101666
H     -1.08590308    4.14042891   22.74272829
H      0.63772881    4.52443794   23.50376860
O     -0.72996764    6.00125218   23.39313249
C      8.22020831    8.75845734   14.89441945
H      7.92929467   10.44902108   14.00071210
H      8.58391765    7.99920271   14.07077331
H      7.20393405    8.59699825   15.01803706
H      8.74089588    8.42414929   15.83777119
O      8.61718514   10.10002961   14.54333380
C      6.76881807   10.23617837   41.15117861
H      5.60951317   11.74316297   41.51006211
H      7.13101899   10.83842474   40.32207861
H      7.53044808   10.16349240   41.89995516
H      6.58320200    9.23009458   40.72113693
O      5.61703333   10.78191331   41.75162215
C      1.25527631    2.88253054   17.38082161
H      3.77995173   -0.65256123   13.94057457
H      1.14578325    3.50347733   16.50531440
H      1.13986138    1.71459310   17.10635125
H      0.46261852    3.14511252   18.08959797
O      2.58547718    3.12624489   18.01830614
C      0.39819042    7.43863857   27.19815144
H      0.52702674    5.46789598   27.80616712
H      0.96218890    7.32429976   26.31321105
H      1.12168775    7.87872462   27.93406363
H     -0.34548830    8.29569285   27.22138037
O     -0.19918336    6.15777016   27.77247695
C      2.25993201    8.48681564   17.03820487
H      3.33183195    6.78615762   17.12822921
H      1.72315311    8.49230885   16.10080640
H      2.47541146    9.58906896   17.20798251
H      1.58483827    8.09605982   17.90459251
O      3.49172899    7.77713526   16.73374120
C      5.94703824    4.05090285   16.11422872
H      6.14541762    2.27803253   15.23029531
H      5.23781984    3.49360673   16.75122243
H      5.31056565    4.73647756   15.58679018
H      6.59291563    4.55694011   16.83727099
O      6.62982723    3.18817179   15.16827548
C     -3.14648653    6.45677406   52.08353543
H     -2.29173973    7.91797565   53.17780424
H     -4.05935995    6.47906525   52.61378732
H     -2.79027351    5.48916324   51.88994338
H     -3.32397732    7.04990453   51.18751384
O     -2.09240923    7.06874100   52.82024413
C      3.82232739    1.60760885   36.95713016
H      3.34535525    1.00468007   38.86807067
H      3.68415830    2.60656739   36.55701884
H      2.96405865    0.93622946   36.72103501
H      4.75631414    1.19207245   36.63320909
O      3.84638776    1.75750285   38.44276329
C      8.51102949    5.79312256   41.08271499
H      6.78229255    5.78482945   40.45037282
H      7.98973054    6.12931198   41.96859233
H      9.18072901    6.60834995   40.86138168
H      8.92806409    4.79876717   41.34373316
O      7.64113588    5.69526796   39.95505778
C     -4.20082301    9.59116566    0.31532287
H     -2.48246859   10.59163312    0.10729910
H     -4.40156975    9.43598821    1.34254289
H     -4.56192113    8.74539401   -0.31721473
H     -4.59675987   10.53360978    0.07889537
O     -2.77828910    9.55750563    0.18197068
C      9.46598748    2.37969602   -0.44263477
H     10.58567747    3.66925949    0.48798708
H      8.54255835    2.47887952    0.00708882
H      9.52206645    3.11684953   -1.19367766
H      9.71153107    1.34053821   -1.04680222
O     10.47743657    2.64124919    0.57690525
C      3.04823120    5.93347103   19.20826293
H      3.14038397    4.64782700   17.90196959
H      3.58963025    5.48513751   20.06216008
H      3.09921119    7.14597861   19.41417989
H      1.95873433    5.87546371   19.42955672
O      3.50218906    5.53980310   17.98332264
C     10.88681839    0.88295453   24.12388486
H      8.87046185    0.55909626   24.31758372
H     11.59826010    1.39887335   23.45117496
H     10.92202633   -0.17441655   23.95978985
H     11.18054473    1.11069164   25.13312784
O      9.51121204    1.14959165   23.88265227
C      3.57410060    2.55841243   22.49414903
H      5.47204994    2.23694527   22.88737244
H      3.79936556    2.30779717   21.44755075
H      3.44269044    3.67903354   22.71254445
H      2.63112022    2.01113109   22.85454729
O      4.61501349    2.15804758   23.39710915
C     -0.08818006    1.82546495   41.48860705
H     -1.50297707    1.44351698   40.00890635
H      0.74629483    1.16417023   41.16279979
H      0.25188567    2.89092835   41.10203026
H     -0.20111734    1.86734482   42.58365979
O     -1.37984050    1.41466470   41.03524654
C      3.06729858    8.21144922   45.86975432
H      2.15787392    6.88601697   47.24395412
H      2.91156682    8.61428327   44.85292747
H      4.11132007    7.76929102   45.76206255
H      2.98429482    8.90174186   46.75232232
O      2.13761963    7.10567507   46.22679782
C      9.17526279    3.70199989   17.28033753
H     10.77404268    2.80210597   16.37897117
H      9.11971860    4.67655806   17.82973137
H      8.90752255    3.92034194   16.16867056
H      8.41499227    3.05654911   17.62973672
O     10.58973084    3.36654198   17.19648532
C     -2.53932088    7.50382437   35.95297258
H     -3.85910512    7.29103669   37.50152081
H     -2.80192991    8.56275741   35.95295351
H     -3.13921336    7.10464873   35.15080799
H     -1.51984232    7.14294758   35.73042236
O     -2.91338639    6.98429545   37.33788147
C      9.90465090    0.35786445   34.51809018
H      8.06125053    0.53843710   33.99504929
H     10.49456393    0.07586140   33.65125048
H     10.61152576    0.92047936   35.21591089
H      9.57184406   -0.56201485   35.11149302
O      8.73660303    1.14861594   34.19074481
C     -0.12158816    0.79761399    1.49320618
H     -1.28421640    2.12460719    0.47148070
H      0.45136785    1.16294289    2.32954904
H     -1.01611113    0.11925910    1.75923049
H      0.63540152    0.12844449    1.10645453
O     -0.36025266    1.83050368    0.50122011
C      9.41213401    5.77498477   23.35045637
H     10.13888187    7.14052489   21.98979449
H      9.12987186    6.22229726   24.40730488
H      9.82559062    4.75000623   23.39487551
H      8.51733348    5.78006006   22.73523785
O     10.41912563    6.64591976   22.75671027
C     10.09211478    4.65528542   34.41562209
H      9.47867340    2.75710603   33.96509076
H      9.27769268    5.44433589   34.55202016
H     10.19483519    4.23505875   35.45552893
H     11.11025100    5.07344609   34.09264357
O      9.70758303    3.60610719   33.53566673
C      2.29445870    6.77020659   38.23443545
H      3.55366222    5.71355443   39.16916482
H      1.61875876    5.91665954   38.40807414
H      2.20408943    6.87089191   37.15482057
H      1.76566198    7.59937987   38.75639576
O      3.65186818    6.50543070   38.54606487
C      0.85714800    5.81327624   34.91411698
H      2.70408155    5.52998621   34.96811293
H      0.86477061    6.81646441   35.44330114
H     -0.07967426    5.38232590   35.24745581
H      0.62007674    5.93395612   33.80131801
O      1.95584242    4.98951156   35.20715060
C     -3.58473415    9.22078917   26.58403278
H     -2.54588407    8.14942495   25.31882607
H     -3.25801600   10.07895475   26.00034095
H     -3.47613281    9.29924633   27.63516356
H     -4.69868388    9.03961443   26.33956654
O     -2.77486172    8.04062910   26.25227263
C      9.41767858    1.61655184   37.94900598
H     10.57145500    3.23873247   38.36784336
H     10.14913560    1.04436512   37.34000231
H      8.70610899    2.12412757   37.29743025
H      8.88721870    0.76258236   38.50642671
O     10.02206312    2.61017670   38.82251083
C     -3.06691358    8.38359686   20.26173692
H     -4.61795467    7.26727335   19.45327279
H     -1.97383555    8.20623988   20.05768975
H     -3.25467159    8.87641265   21.23065903
H     -3.34171528    9.03297171   19.38742993
O     -3.91842434    7.10983008   20.14144716
C      6.89998302    8.30697472   37.91159029
H      7.79719466    6.82113988   38.51983745
H      7.20062129    9.29406018   37.57769067
H      6.07485519    7.80464374   37.38825631
H      6.54674841    8.30470751   38.92579162
O      8.03410287    7.43034756   37.82616367
C     -2.03063642   10.92910243   22.84149811
H     -2.47749784   12.42602169   24.07631449
H     -0.85347126   11.07748551   22.73537076
H     -2.51093731   11.03956440   21.81015870
H     -2.16248255    9.89646793   22.94402751
O     -2.77624782   11.45246903   23.94743266
C     -0.39525773   12.15659725    0.26389567
H     -2.22418416   12.66368737    0.57604042
H     -0.21191386   12.55290654    1.29764922
H     -0.09375733   12.89864358   -0.61408149
H      0.25802194   11.22840338    0.08524529
O     -1.82937067   11.91270561    0.12794641
C      6.76161846    4.05786590   26.23154638
H      7.36655012    3.22700902   27.87351376
H      7.16534969    4.98105041   25.77965274
H      5.72477934    3.82281865   25.93316524
H      7.37089724    3.25192824   25.78886612
O      6.95416429    4.07137469   27.69667087
C      4.25811261   10.08033886   37.85767205
H      3.11259677    9.82130791   39.36312099
H      5.18944109   10.47487002   38.26728347
H      4.15465567   10.40411891   36.73983322
H      4.45659844    9.00778725   37.81277995
O      3.04761756   10.27704657   38.53141626
C      5.07848512    6.95114641   13.72303895
H      3.04576768    7.85944309   13.36120588
H      5.26834663    7.05917499   12.63557429
H      4.76071934    5.88833584   13.93188959
H      5.93746957    7.16274269   14.25386141
O      4.02083267    7.81803292   14.22736180
C      2.19901396    3.78065633   26.78711748
H      2.44846086    4.26920599   28.64058141
H      1.29135975    3.24755592   26.92818428
H      2.39720227    4.26214428   25.81409231
H      3.06260447    3.03139801   26.90709583
O      2.23030559    4.88530832   27.82946397
C      6.27191987    4.56447219   36.84339794
H      4.79695365    5.74850879   37.02757041
H      6.56812307    3.81296892   36.09423364
H      5.69224389    4.05116269   37.69034379
H      7.18043317    5.19361571   37.20156929
O      5.27791386    5.43840139   36.28356745
C      2.92300122    0.84566803   14.99899427
H      5.27945736    0.37345416   15.69900905
H      3.36604697    1.80768579   15.49004781
H      2.24822564    1.21972281   14.20720600
H      2.35706768    0.24704214   15.78021016
O      4.03758819    0.02462931   14.66151317
C      7.97912786    5.04666866   12.64338945
H      7.91234846    3.68927479   14.04373203
H      8.76757632    5.34801021   11.87592969
H      7.10919509    4.48767082   12.11810482
H      7.59361389    5.98936867   13.02062843
O      8.63587027    4.23266949   13.60484609
C      3.75055242    7.81661794   33.85338558
H      4.66193501    6.23459285   34.68493021
H      4.24313025    8.09803927   32.84413198
H      4.34505139    8.39288904   34.59586329
H      2.74256785    8.23224927   33.89943664
O      3.84970195    6.43956084   34.16576684
C     10.46753408   -0.30636972   18.71821296
H     11.03093686    1.64755644   18.07204264
H     11.08396642   -0.50204289   19.56729558
H     10.14603330   -1.21449232   18.05074977
H      9.48086967    0.08732045   19.20491158
O     10.96258080    0.71301750   17.81308594
C      4.15855374    3.14510971   12.38769067
H      5.51467761    2.67282958   10.98290581
H      3.77092191    4.06320544   12.96178556
H      3.39619431    2.88180067   11.58936806
H      4.19537597    2.37501558   13.16957619
O      5.43954136    3.21475799   11.78677353
C      1.70077920    6.85441229   31.00020712
H      0.21837726    7.14749902   29.78302381
H      1.49184855    5.76112200   31.28108366
H      2.03058706    7.23664837   31.98547499
H      2.52022657    7.02734616   30.32244868
O      0.44670644    7.54328437   30.70451682
C      4.89956122    2.83351544   33.70953130
H      6.45454128    3.01707488   32.72850678
H      4.14878011    3.06275802   33.04826967
H      4.60420804    2.10794409   34.48688220
H      5.25443697    3.73886557   34.24919820
O      5.89655451    2.25538785   32.86956951
C      1.41707016    8.66037619   12.52888968
H      2.12893327    6.67069947   12.39822669
H      0.62615764    8.20359519   13.22607455
H      1.74004668    9.53459448   13.04983093
H      1.10373943    9.01899507   11.54291974
O      2.51332466    7.74752524   12.35573929
C      5.41622416    6.78874596   42.85479248
H      4.69702990    7.17131349   40.97880463
H      6.53615006    6.75851116   42.90906391
H      5.07780833    7.72341920   43.18634532
H      4.97745005    6.00103356   43.46314619
O      5.29632744    6.51288274   41.41563584
C      2.34644770    7.79358300   23.04952929
H      0.53412457    6.76878959   22.70049159
H      3.11237320    8.29266912   22.63240350
H      2.74301827    7.03394438   23.71116528
H      1.84358938    8.54222302   23.71810918
O      1.36509822    7.11687512   22.22144263
C      2.39398759    8.91029376   41.83504927
H      4.22869468    9.79824292   41.32818365
H      1.83849225    8.02460678   41.40391477
H      1.76729165    9.77211030   41.93527594
H      2.58300375    8.40843596   42.86326389
O      3.56858484    9.07774547   41.06136622
C      1.07261327    5.95338704   15.17392886
H      3.92832305    7.56248716   15.27597128
H      1.95310167    5.40942584   15.66412341
H      1.44016282    6.66045632   14.42221615
H      0.42678449    6.28818910   15.98229121
O      0.44354983    4.95849355   14.31461261
C     -2.49218398   12.19098121   30.38192199
H     -4.44981521   11.48798912   30.20854545
H     -1.88479952   12.70201273   31.19921635
H     -2.71465457   13.07842023   29.83784996
H     -1.99272254   11.44994091   29.75688180
O     -3.75101333   11.72637621   30.89808105
C      6.71982171    9.48490984   22.64639008
H      8.04570605    8.51323486   21.58318834
H      5.88916866    8.62811436   22.84362635
H      7.32082555    9.47898101   23.62780715
H      6.05114093   10.39851773   22.55752728
O      7.51574210    9.30879383   21.46919039
C      6.63372419    6.76155331   18.91156197
H      7.75130729    8.25888256   18.18744693
H      5.66757767    6.95001032   18.42657763
H      6.34044202    7.46392778   19.86677914
H      6.90752322    5.70204516   19.01801679
O      7.72155932    7.30962219   18.16264114
C     -6.66283386   11.64895558   32.69397265
H     -4.59449913   11.74846649   32.34578731
H     -7.42292615   12.29899328   33.19835323
H     -6.93437872   10.66108825   33.15791235
H     -6.60015347   11.35711192   31.57353375
O     -5.25897228   11.91382719   33.08510475
C     -4.54230662   11.01876102   38.78516875
H     -3.59340835   11.53332583   40.40153988
H     -3.85017027   10.67256743   37.98749873
H     -5.41412186   11.32430886   38.21869367
H     -4.75128919   10.19539640   39.42451878
O     -4.13743178   12.07137824   39.68743902
C      6.88782653   11.46475292   28.79163106
H      7.67817287    9.77645849   29.71664465
H      6.31797875   10.94306286   28.05364218
H      7.33486716   12.42776189   28.46569342
H      6.19073113   11.79401919   29.62764228
O      7.89744851   10.75077748   29.45390068
C      2.54383017    4.18268751   44.23444365
H      1.98189157    6.06573966   45.11110210
H      3.25039824    3.70861941   45.06482011
H      2.77438141    3.83755818   43.30754248
H      1.61601057    3.70020752   44.42958442
O      2.36749938    5.63298418   44.23460803
C      5.21193475    5.87799599   47.51028773
H      5.36535987    7.38163057   48.93437494
H      6.14272204    6.34924585   47.17854279
H      4.37627792    5.96014326   46.75455108
H      5.33224110    4.71929030   47.70480715
O      4.84336708    6.30646935   48.89953177
C     -2.82049576    8.71786237   31.62821148
H     -1.24026814    7.63074834   31.86517641
H     -3.19859858    9.73035783   32.04212859
H     -2.27120914    9.07156363   30.72914522
H     -3.79817407    8.10295275   31.40243133
O     -1.96730034    8.00982470   32.44199423
C     10.10296883    3.06301698   21.50397113
H      8.73776426    2.18813179   22.73761155
H     10.63059729    3.82826762   22.04456501
H     10.50420983    2.00697902   21.50301676
H     10.21218701    3.31754229   20.41606565
O      8.73277606    2.88959929   21.94102155
C      0.10810033   10.63845312   37.27443830
H      1.50499489    9.17401598   37.12260644
H      0.83367388   11.15058689   37.83844454
H     -0.56633702   10.17860124   38.02751466
H     -0.35771396   11.25848304   36.57597341
O      0.75043028    9.57052072   36.50814815
C      0.58560852    9.93272436   19.81299899
H      0.86708970    8.07710955   20.62305256
H      1.63545826   10.14575820   19.91209345
H      0.12760357   10.45687735   20.66696040
H      0.17049461   10.26143044   18.89985034
O      0.41874902    8.49634763   19.81805983
C     -2.27168180    6.28615311   12.08124276
H     -2.52831174    5.99171259   14.04796820
H     -1.53540494    5.74767443   11.46879791
H     -2.14271362    7.44148527   12.03275956
H     -3.22206795    6.00714346   11.64167435
O     -1.93158936    5.65537174   13.38884013
C      3.28252170    9.75092297   27.39239217
H      1.63153998   10.79131747   27.91572573
H      3.81134327   10.67698709   27.63559319
H      3.62075053    9.44083142   26.43564171
H      3.52071505    9.03511559   28.14918753
O      1.87474220   10.10871676   27.26869208
C      7.19113857   10.49041103   17.81946739
H      6.19782948   12.23517844   17.70632932
H      6.23173878   10.10925067   18.21101256
H      7.92280544   10.10122587   18.49864446
H      7.28849859   10.03041352   16.76160415
O      7.12812711   11.96121317   17.75653898
C      3.30975074   -0.44339294   18.63249652
H      3.10657643    2.35669610   18.09855310
H      2.15711531   -0.59302265   18.41937867
H      4.03772724   -1.10138328   18.23448826
H      3.43269627   -0.62573757   19.70163313
O      3.76151636    0.95878935   18.24742334
C      9.24459095    6.15041690   28.69777523
H      7.35211967    5.50777713   28.45181188
H      9.64552103    6.98486800   28.16698217
H      9.58446398    5.33938122   28.22289186
H      9.75804400    6.14053941   29.72579234
O      7.83160228    6.27987169   28.71317186
C      4.64076899    4.83785175    7.34608537
H      3.57946531    4.14626646    8.84777668
H      4.11010065    4.42207907    6.49265454
H      5.48945530    4.10747221    7.66736541
H      5.11360932    5.79679013    7.05950229
O      3.78855731    5.03144694    8.48094017
C      0.85940004    3.16246531   32.98012409
H      1.52109130    1.42081836   32.19606423
H     -0.31535005    3.21661991   32.88828189
H      1.09006919    2.82422977   33.97496385
H      1.18641351    4.22068474   32.63063132
O      1.41532827    2.34657846   31.91845043
C      7.14461088    0.03951733   16.56624761
H      4.66310620    1.01412675   17.76932135
H      7.43973722    0.01786777   17.73711879
H      7.16747178   -0.94736701   16.22062229
H      7.92688668    0.57840607   15.97822465
O      5.80547087    0.65022832   16.49497272
C     -0.71574482    4.48811539   38.42421837
H     -2.35501777    5.47058821   37.87516384
H     -0.25469236    5.48412397   38.70066423
H     -0.09448906    4.09226940   37.60709303
H     -0.36122063    3.86674786   39.22729894
O     -2.13198651    4.52291405   38.23467928
C      0.10538401   12.26850482   25.64251767
H      1.51070481   11.04360044   25.67612732
H     -0.30803342   13.12461813   24.98273966
H      0.55666787   12.86156219   26.50601323
H     -0.73756272   11.65654342   26.15043754
O      1.18570740   11.54522447   24.95726737
C     -0.81103958   10.80046079   33.40268102
H     -0.65506553   12.74506457   33.40000511
H     -1.19225476   10.83848788   32.34268401
H     -1.71989227   10.83657083   34.01424743
H     -0.29347538    9.84585394   33.57597063
O     -0.02508502   11.92561132   33.67220924
C      5.32640954   11.36729726   12.77486275
H      6.71809914   10.81716392   11.46169603
H      5.26096370   11.31437938   13.87106714
H      4.77823455   10.62102346   12.26972196
H      4.90653760   12.33032093   12.44753009
O      6.70333905   11.21381080   12.33693945
C     -2.49670254    3.83400068   26.35557895
H     -1.56651676    5.23552981   27.53862333
H     -1.84154446    4.04610544   25.49931045
H     -3.54278869    4.09021893   26.16724298
H     -2.56316965    2.79621444   26.61042015
O     -2.04038158    4.39916098   27.61964027
C      4.19572527    8.04570796    4.92630006
H      3.00245104    7.61756850    6.29000918
H      5.11305005    7.44409823    4.98711474
H      4.47772828    8.88999055    4.31436727
H      3.37395720    7.62030559    4.34391414
O      3.66432767    8.42677554    6.16968549
C     13.12739678    1.08280385   36.85866705
H     12.53186742   -0.71073982   36.76347628
H     12.75052580    2.08397458   36.45160069
H     14.21821813    1.09798340   36.91156026
H     12.66629164    1.06745705   37.90245401
O     12.57060989    0.04386690   36.10679932
C      7.57674818    5.65518023   32.03657183
H      8.41802350    4.01913718   32.85833569
H      8.54960207    6.13282779   32.35048059
H      6.77522700    6.41638088   32.25297774
H      7.61092957    5.54194624   30.99541413
O      7.45025344    4.48110060   32.88175970
C      6.24525155    2.57950777   19.46431071
H      7.64469605    2.19335923   20.82075643
H      6.47756818    2.31704076   18.42070357
H      6.60147427    3.65696204   19.69948308
H      5.13021199    2.49260873   19.48094558
O      6.85405460    1.71739336   20.42787493
C      8.04352845    8.05951443   34.15862446
H      8.50309801    9.98399870   34.52990409
H      8.78790826    7.79988168   33.42093459
H      7.07917791    8.32611434   33.68825425
H      7.92359646    7.19990902   34.79831310
O      8.58738156    9.08424629   35.03990500
C     -1.44309673    5.28217887   19.41057952
H     -2.11588358    4.50136740   17.62980074
H     -0.69018360    6.12604481   19.54002840
H     -0.68934240    4.42352517   19.66482620
H     -2.32804197    5.37115030   20.04685243
O     -1.64652134    5.33918565   17.97911227
C     12.53178835    1.71312682   14.70687767
H     10.73793618    2.35894407   14.12365201
H     12.77153070    0.62757174   15.08126960
H     13.21954882    2.34993835   15.28382113
H     12.70590364    1.71797917   13.59943361
O     11.20323383    2.11328974   14.92700752
C     -1.25816973    8.12416380   39.93511386
H     -3.06493660    7.78979600   39.14294589
H     -0.68791583    7.25939833   40.35199018
H     -1.00525411    9.03046937   40.51842639
H     -0.87958925    8.30807844   38.89726537
O     -2.68833366    7.90135506   40.01173977
C      3.96943019    3.60493246   40.85089965
H      3.91897314    3.51314044   38.94932017
H      4.30290450    2.51248948   40.72716186
H      4.70901181    4.25411907   41.37282927
H      3.05506955    3.52458532   41.48342038
O      3.65846049    4.17311454   39.62413000
C      1.51617953   11.10691005   30.54068242
H      1.47867481   12.72663916   29.32303054
H      2.59537684   11.04954338   30.81431938
H      1.11448718   10.09172816   30.63547286
H      0.98436382   11.63667618   31.39322660
O      1.35739050   11.69286004   29.30349889
C     11.91802804    2.03461925   30.50813715
H     11.51503304    3.23150280   29.05994588
H     13.04968580    2.00743741   30.39140965
H     11.66600424    0.96505356   30.77034485
H     11.49913097    2.81334397   31.22532020
O     11.35717401    2.24973417   29.23203710
C     -1.96471667    8.21093170   15.97493231
H     -2.52806084    6.46296728   16.53084586
H     -1.00794484    8.03437401   16.52233973
H     -2.56983705    8.81191230   16.61297862
H     -1.70710868    8.69981755   15.05316318
O     -2.74776782    6.96754791   15.75175057
C      8.08597062    2.79611041   30.30214494
H      9.67463033    1.98532523   29.20385045
H      8.37229729    3.82546275   30.45577354
H      7.03349415    2.62519608   30.33242357
H      8.43660090    2.35123708   31.31167724
O      8.66542598    2.16559424   29.16205045
