  823
# Step    60000,  Time   60000.0000 fs
Al     2.91759157    0.36583268    9.31290903
H     -4.71727563   10.66203681   13.02823576
H      9.73336229    2.05882014   13.47295187
H     -3.09841905    9.84697194   41.02711027
H     10.61588283    2.78791412   40.82906033
O     -3.99711118   11.55702195    7.88845670
O      4.57473471    0.59221419    9.47074691
O      2.15145487    1.87755138    9.25345848
O     -4.16608626   11.40548739   10.60302097
O     -1.91462615    9.85114662    7.98903205
O     -4.35789865    9.00320010    7.87608505
O     -2.09591807    9.71970505   10.82035668
O     -4.42944336    8.80128458   10.54181942
O     -3.24809414   10.08450302    5.84882714
O      7.03351931    0.09295252    8.51296145
O     -0.17675304    0.40555852    8.72346799
O      5.25926914    1.12413891    6.91384072
O      0.78517513    2.05043903    6.95005905
O      6.30254426    2.57831823    9.03528717
O     -0.18415067    3.02298273    9.27204366
O     -3.82715842   10.15741510   12.86526798
O      0.08294116    9.64440184    9.38437112
O      7.41013674   10.13002036    9.37963585
O     -1.69097914    7.60737534    9.44656491
O      7.52968938    7.47830851    9.10617741
O      1.39276991   10.23711581    7.13215468
O      6.29383599   10.64372416    6.87425198
O      2.38086856   10.72678481    9.53066540
O      5.01631021   11.15040431    9.16162335
O     -4.05022029   11.57139234    3.67476699
O      4.76520906    1.06958393    4.35368607
O      2.28939709    1.80650773    4.82911331
O      7.55504434    4.75578127    9.48411316
O     -1.41162558    5.21963045    8.91979942
O      0.30636645   12.00914627    5.18609964
O      0.03149310    0.38387904    5.10322200
O      8.70195691    2.98159232    7.92031533
O     11.40714769    2.98029408    7.73091086
O     -2.10628905    9.81779263    3.53504102
O     -4.53045139    8.99834190    3.91426524
O      7.04010900    2.39468221    5.16328527
O      0.10005762    3.15166375    4.75311375
O      8.52419524    2.57012933   10.53158660
O     11.02112027    3.28750123   10.31941145
O      9.77133679    6.16365890    9.10685372
O     10.19848877    0.49566340    7.83021349
O     -2.54402321    6.65697315    6.99690319
O      7.89636698    5.86014638    7.12620897
O      0.04758163    9.32158100    4.94192434
O      6.67950749    9.92631657    4.24273509
O      3.16044253    1.57637461    2.23110096
O      2.37203945   10.26157662    4.70872544
O      4.76402117   11.41791488    4.82089054
O     10.07465551    2.06091606    5.76020703
O     -1.78641066    7.36415048    4.58976580
O      7.29520381    7.49729291    4.94175333
O     -1.81431935    4.82453448    5.25953167
O      7.36524561    4.88505456    4.83690604
O     11.46219209    2.69624374    3.71850536
O      8.96701940    3.25047986    3.54900189
O     -0.48398380    8.42583783    2.49364663
O      7.29311589    8.09160521    2.32168431
O     -0.74042806    4.67222572    2.75414057
O      6.40101114    3.60719471    2.71301468
O      9.64260068    6.15019383    5.08438496
O      9.48224837    0.69499134    3.66571464
O      3.79273718   10.59603276    2.44584176
O      1.47845435    3.69093600    2.01528403
O      4.04950062    4.29981419    1.80131310
O      2.97110705    2.73939425   53.91300000
O      1.27111875    6.43985030    1.94979948
O      6.21383629    5.92547833    1.55639912
O      4.70234441    8.04662385    1.90513397
O      2.14325532    8.72034983    1.96080940
O     -0.16886994    4.95241011    0.31157061
O      5.97861847    3.76152005    0.13973080
O      0.28512717    8.20706842    0.04400906
O      6.52097515    7.94229872   53.84504413
O      3.82889295    9.31460575    0.02500000
O      1.71630422    4.57567561   52.46590248
O      4.22291292    4.25995694   51.95244577
O      2.60191053    2.19537614   51.33846748
O      0.03965514    6.41298558   52.01219192
O      5.94593028    5.84789232   52.34765016
O      2.25918946    7.76955600   52.50421300
O      4.79233619    8.12713180   51.77650320
O     -0.83689562    3.96906751   51.86015502
O      6.88554101    3.51622106   51.66983391
O     -0.00088953    8.93677236   51.51461372
O      7.38409912    7.80503199   51.32745177
O      3.25983394   10.26724282   51.58460533
O      1.87597941    0.99988906   49.07170256
O      4.43605905    1.53965952   49.73132474
O     -0.35503946    2.43214311   49.70766444
O      6.35412990    3.29227536   49.04767045
O     -0.72437517    4.94956642   49.45976732
O      8.34268526    4.97284552   49.80711301
O     -0.65279777    7.43820987   49.29262228
O      8.54314082    7.58399134   48.96931885
O     -0.23901481    9.96554382   49.03906564
O      6.60829587    9.40318569   49.28680351
O      1.91995927   11.38756575   49.77635114
O      4.34974749   10.70507876   49.11327593
O     -3.26155315   11.72249781   50.87521165
O     11.04322935    3.34937849   50.31787655
O      8.54935134    2.18042598   50.17452111
O     -2.38755581    9.24095144   50.41851778
O     -5.01312015    9.75720354   50.65429151
O     10.52473209    0.66741249   50.78215881
O      6.56154008   12.06560022   49.04022160
O      6.57408225    0.45952869   48.67528103
O     -3.09042325    6.25609290   49.18635575
O     -0.02913059    1.84670933   47.28047085
O      5.07563634    1.84391634   47.12681699
O     -1.36820843    6.27718949   47.11060717
O      8.91328779    5.45802011   47.28400435
O      1.53760355   10.91580199   47.22862539
O      5.80753856   10.26925994   47.05310686
O     -3.43313122   10.58780736   48.49168588
O     10.35307597    1.76858300   48.38296641
O      7.11097452   11.96631953   45.47074422
O     -0.26040908   12.12719730   45.73214286
O     10.25859638    6.22280034   45.22485121
O      1.72225015    1.65221598   45.20668508
O      4.28354820    1.16890684   44.59865102
O     -0.68290283    2.30408925   44.79961443
O      6.42113406    2.52559082   45.07983917
O     -1.22644942    4.97699215   45.04807265
O      8.26634706    4.55465791   44.80355622
O     -1.42668908    7.65866276   44.76090735
O      7.84620085    7.16191737   45.43281610
O      0.15943842    9.53091528   45.26249940
O      6.79489676    9.40630704   44.86426591
O      4.83698896   10.87920320   44.61912322
O      2.24967297   11.08099693   44.65927990
O     -3.46493090   11.71556274   46.23808744
O     -2.11009392    9.53361327   46.43406895
O     -4.81995078    9.32315962   46.72402801
O     10.97520332    3.34131877   46.22773188
O      8.61064089    2.45707577   46.54212147
O     10.31137276    0.60677940   46.03654930
O     10.32064812    0.67201016   10.67671791
O     -4.15998000   11.59335114   43.67305728
O     -2.08879219   10.02496065   43.71347015
O     -4.37076231    9.02215006   44.14314948
O     11.04837080    3.27596887   43.50501057
O      8.64301359    2.10379323   43.85708948
O     10.54922945    0.63591808   43.20447196
O     10.19772835    2.60352220   12.66507511
O     -3.86953482    9.97630325   41.75324004
O      9.75958148    2.51166606   41.37246093
Si    -3.37902069   10.18932004    7.44562940
Si     5.73894512    1.13650409    8.48702672
Si     0.72965011    1.80568220    8.54220023
Si    -3.59269829   10.08254854   11.22684734
Si    -1.41633125    9.21068415    9.41265861
Si     8.45048164    8.84411423    9.17088169
Si     1.01323177   10.71334336    8.65341332
Si     6.50239294   11.04699881    8.44386004
Si    -3.53290097   10.20483280    4.24860959
Si     6.02837624    1.13944691    5.46976996
Si     0.71085765    1.80179967    5.36287717
Si     7.77681006    3.13803059    9.23817595
Si    -1.61040070    3.57921460    9.08690026
Si     8.20866943    5.97509670    8.69316799
Si    -2.41417352    6.48960232    8.58069278
Si     3.29549451    0.96422938    3.78467923
Si     0.97061320   10.50505536    5.55628124
Si     6.27807872   11.11950847    5.21902472
Si    10.05507519    2.09574875    7.35350401
Si     3.59038063   11.84374935    9.34842388
Si    -1.06835773    8.74184488    3.94693745
Si     7.59745562    8.70364213    3.85579320
Si    -1.23655171    3.81113038    4.04718160
Si     7.36655457    3.54877267    4.07107683
Si    -2.56749678    6.24694167    5.46928947
Si     8.09810703    6.18977296    5.54163619
Si     3.41419832   11.24752124    3.91134357
Si     9.98293557    2.14145460    4.16777211
Si     2.95295464    3.09345116    1.56725189
Si     0.54238282    5.01561687    1.75854065
Si     5.59704361    4.42652362    1.61309434
Si     6.16674019    7.49609654    1.37538863
Si     0.80026132    7.97270948    1.55026945
Si     3.59932993    9.19809097    1.61128177
Si     2.88684638    3.41474770   52.36808646
Si     0.14593044    4.93735569   52.71473993
Si     5.70542945    4.32141943   52.56186207
Si     0.55521922    7.83368958   52.51581571
Si     6.18303428    7.45502171   52.30070328
Si     3.45094525    8.85750597   52.53509104
Si     2.97497676    1.08094235   50.24494301
Si    -1.19176946    3.67663029   50.30854900
Si     7.54295227    3.54622214   50.18008402
Si    -0.83978460    8.90213216   50.04745468
Si     7.78806569    8.62221307   49.97253445
Si     3.37924762   11.24299888   50.34861992
Si     0.27627815    1.31150436   48.79063907
Si     5.62471006    1.78954917   48.67090344
Si    -1.49544447    6.21359612   48.72670945
Si     9.09983565    6.03808013   48.80222304
Si     0.75113443   11.20370926   48.65323896
Si     5.91463169   10.62089318   48.60993484
Si    -3.56093938   10.35255675   50.19304227
Si    10.15491017    2.02209949   49.97576676
Si     0.19826140    1.40829911   45.72537154
Si     5.47389681    1.39607130   45.66591010
Si    -1.83528809    6.33396559   45.54641255
Si     8.80318511    5.82978045   45.70722957
Si     6.11781247   10.66389905   45.52603103
Si     0.89494350   10.96252891   45.67701352
Si    -3.49720508   10.25515682   46.95149915
Si    10.16939227    2.00007808   46.79796219
Si     2.86054865    0.49259886   44.96757908
Si    -1.88084475    3.54013105   44.82105055
Si     7.96340485    2.98952381   45.08673623
Si    -1.41006318    9.23988464   45.03744650
Si     8.21145048    8.71589560   45.32243789
Si     3.61784795   11.93583224   44.62936773
Si     9.98706435    2.22213275   11.11347124
Si    -3.60847062   10.18344315   43.29120698
Si     9.99770901    2.14815560   42.90034663
C      6.92063967    4.09194734   13.04283482
H      4.92623901    5.08079580   12.62216975
H      5.32083021    4.83835243   14.25187168
H      7.29382334    3.75579783   12.00311119
H      7.01320164    3.24341473   13.68139053
H      7.41618214    4.98801144   13.36853861
O      5.41888593    4.30287208   13.27445959
C      9.77620301    6.25041406   13.03361744
H      8.86091382    7.63436484   11.88574900
H     10.71436318    6.47865550   12.49563368
H      9.66302286    5.07256855   12.95444670
H      9.84545147    6.47944070   14.11248697
O      8.57694335    6.89130257   12.55529758
C      5.18765716    6.46812980   47.74336332
H      4.64010447    4.86449044   46.77727266
H      4.30543670    7.03539996   47.47155846
H      5.02860540    6.07287276   48.73037527
H      6.11920220    7.04410085   47.68576063
O      5.42393446    5.44085975   46.85942800
C      7.97711052    1.30996910   15.74922661
H      8.29621547    0.63871049   13.90353985
H      8.51978564    1.76184324   16.64125084
H      7.54466727    0.32638311   15.97409504
H      7.12807042    1.93121126   15.63681192
O      8.86248464    1.16278220   14.55978348
C      2.86960298    7.58004229   45.21301647
H      4.58240763    7.12715276   44.00812175
H      2.83524427    8.44057704   45.91800367
H      2.99593084    6.58838072   45.60581916
H      1.90037700    7.56278955   44.67555742
O      3.90879115    7.86871182   44.28855236
C      6.62964358   11.37675443   52.46805430
H      7.40011983   13.27145964   52.47136107
H      5.95487203   11.89273142   53.06392935
H      6.06989012   11.06120355   51.61445409
H      7.16225525   10.48705756   52.95559149
O      7.65504856   12.38378511   52.12686917
C      9.45860407    6.15502726   52.63838874
H     11.04972943    5.97546389   53.77565057
H      9.69072940    6.88114267   51.77019712
H      8.99477015    6.77765768   53.48290002
H      8.80321589    5.53416628   52.12398674
O     10.63203938    5.35889715   53.09684892
C      1.48405428    0.82686866   31.74456785
H      0.37100992    2.04888784   30.66149597
H      2.12208719    0.69993246   30.82043574
H      2.27019039    1.11958692   32.41949962
H      1.04217363   -0.11707643   32.08250080
O      0.40370445    1.74752956   31.58505619
C      7.73675014    6.48949798   33.06214710
H      6.61439531    4.83273322   32.88197917
H      7.61220282    7.56425432   32.92813107
H      8.02764935    6.26049247   34.04310838
H      8.38645600    6.23418276   32.16517127
O      6.43424567    5.82721214   32.91360693
C     -0.81985746   11.02494461   19.99721563
H      0.37504677    9.52169232   20.07268352
H     -0.32277643   11.46128601   20.87142955
H     -1.80770538   10.57642113   20.42831321
H     -1.09512496   11.83847590   19.38692198
O      0.00518544   10.07861087   19.29947772
C      2.80593334   12.26350711   34.00478069
H      3.90722065   11.30919674   35.33721399
H      1.77677079   12.36872327   34.33877753
H      2.91617976   12.23597475   32.89437766
H      3.40000001   13.12708328   34.30542792
O      3.27959648   11.00063118   34.57004958
C      3.94968705   12.71173948   26.75833088
H      5.35990863   11.42636978   27.47288670
H      3.34376918   12.54729260   27.69385499
H      3.32986188   12.60820393   25.81827201
H      4.52945560   13.68035351   26.79909382
O      4.88575083   11.60698958   26.61757430
C      1.27446763    6.59467072   10.62349577
H      2.32214263    5.25021539    9.50620750
H      1.70129051    7.52964702   10.30588533
H      0.30280311    6.37924143   10.16850046
H      1.03999619    6.79915052   11.71300133
O      2.16549861    5.39156054   10.51293300
C     11.42080863    5.08065732   26.33104181
H      9.87764214    3.92627953   26.78855765
H     10.87620329    5.65290580   25.49012303
H     12.48511050    4.91999311   26.16714505
H     11.39007308    5.80764857   27.17698219
O     10.80660786    3.82188318   26.76013587
C      1.02378887    3.64872935   35.82418333
H     -0.57668108    2.83228658   34.82927929
H      0.91446277    4.50965552   35.24846961
H      0.76863920    3.87265702   36.78106068
H      1.97282337    3.19832898   35.80793495
O      0.21208553    2.57258226   35.28686843
C     -0.87829708    4.94319187   13.21576588
H     -1.89654273    3.35430881   13.33882390
H     -0.80874557    5.16925829   12.11379682
H     -0.09451757    5.33941250   13.89807563
H     -1.81699141    5.34496082   13.59263440
O     -0.93384863    3.49100497   13.50419131
C      6.19244726    7.07515475   28.11552460
H      7.67960671    5.96559358   29.01745058
H      5.45399325    7.29862583   28.93636078
H      5.54597811    6.92276998   27.14056135
H      6.83199665    7.93698090   28.11342679
O      7.14902371    5.99841937   28.18629299
C      8.20949713    5.58865976   25.15542463
H      7.79309245    5.16954930   27.02075577
H      7.34371839    6.32552411   25.11594404
H      9.07185420    6.25136692   25.28037798
H      8.36717182    5.07194128   24.23513235
O      8.14808885    4.66519351   26.20046069
C      1.46736283    4.37022486   23.01528051
H      2.31426513    5.86807941   23.92307874
H      0.64496453    4.59356458   23.69255002
H      1.89553360    3.45714231   23.57444470
H      1.11503114    4.07161917   22.09675829
O      2.42829717    5.50693875   22.99867901
C     -3.81022007    6.25152162    1.98530762
H     -3.13759624    8.05546257    1.13547507
H     -4.24651563    6.96504825    2.86149741
H     -3.24842301    5.59350121    2.54804485
H     -4.51630390    5.63374998    1.47128532
O     -2.92829121    7.03499276    1.15169760
C      3.16822146    9.58627245   41.17380842
H      3.10848195    8.18985030   42.63977151
H      3.54344692    9.52494424   40.11349233
H      3.85153134   10.04021580   41.89165956
H      2.25161078   10.11779563   41.16963538
O      2.86487927    8.19519758   41.67316039
C      2.09570736    4.50611270   48.00412508
H      3.57074110    3.93193859   49.31694555
H      1.56813908    3.87715502   47.31885068
H      2.48546512    5.34491874   47.38681954
H      1.38385592    4.77653465   48.87516495
O      3.04777528    3.59206943   48.51554902
C     -4.23119241   10.34252805    0.01799777
H     -2.54367019   10.41862735    1.18496996
H     -4.65520764    9.48101696   -0.49456967
H     -3.57973869   10.79202510   -0.73357121
H     -4.96872823   11.17840675    0.30575633
O     -3.38639896    9.90527601    1.15171867
C      9.11142507    2.55884039    0.38287110
H     10.68549968    3.83692326   -0.08455478
H      8.84112033    2.03380178   -0.57741370
H      8.42975855    3.33728962    0.47531964
H      8.96996410    1.87147984    1.33184225
O     10.55168526    2.99258097    0.41934862
C     -3.17849230    8.09801782   19.48227392
H     -4.21018472    9.78147692   19.97386689
H     -3.97927153    7.89599009   18.69958765
H     -2.87172684    7.22355648   20.12430475
H     -2.35304632    8.63852964   18.96214079
O     -3.79661249    8.99767767   20.44064642
C      8.51116662    0.67960036   37.99388426
H      6.76362652    1.31946341   38.42335777
H      8.99513821    1.46921616   38.66097935
H      8.34637144    1.12060512   36.99913356
H      9.25323839   -0.14326403   38.07473028
O      7.10720728    0.39153623   38.31772313
C     -2.21492087    8.52051899   25.78498707
H     -0.56946259    8.67824286   26.98982608
H     -2.13992691    8.07926548   24.71732779
H     -2.22362165    9.58123063   25.74082621
H     -3.08447279    8.15704416   26.27038454
O     -1.10662566    8.03917636   26.42759806
C      7.78568572    8.60582917   37.36186083
H      8.47252847    7.20586918   38.60888704
H      6.65101957    8.65381866   37.35242848
H      8.11348299    9.35988378   38.13147821
H      8.24989294    8.91140678   36.39584118
O      8.31589877    7.35617798   37.57637929
C      1.53330133    5.54894830   16.26587642
H      2.44273654    4.08827133   15.29971601
H      0.68742985    4.89492889   16.52944975
H      1.18186077    6.32442433   15.48941233
H      1.69639585    6.15008334   17.13640222
O      2.73097318    4.71617475   15.98557781
C      5.17001975    7.37226467   39.26061175
H      3.77130298    6.96740609   40.48548243
H      4.67090308    8.25820669   38.95577770
H      5.48151194    6.71569424   38.42515006
H      6.04099837    7.58443196   39.88344445
O      4.31547351    6.39513245   39.91486364
C      0.49339273    1.59844878   20.88002504
H     -1.02808746    2.55823853   20.00571616
H      0.76252631    1.29288488   21.97168542
H      1.44108693    1.74579773   20.36671803
H      0.21571436    0.58954048   20.57017780
O     -0.42646294    2.64852822   20.81012408
C     10.23719386    6.34064079   29.95062329
H      8.95753833    4.70305440   30.52059588
H     10.45290583    6.45235007   30.95308740
H     10.12159664    7.27706581   29.51837099
H     10.98060356    5.83476155   29.37634302
O      9.03492171    5.55529923   29.97001386
C     -1.90091538   11.80908708   35.11356343
H     -3.74658992   12.15496799   34.35716712
H     -2.25686180   10.81813692   35.52851125
H     -1.89639785   12.48279313   35.98485886
H     -0.78123989   11.76660172   34.78641497
O     -2.78601726   12.26679713   34.11316894
C     13.09171896    0.84835792    1.64715436
H     12.05533025    2.14381840    0.58856358
H     12.17416636    0.41807151    1.95263439
H     13.66754043    1.42101296    2.43833099
H     13.82910244    0.01440667    1.44851897
O     12.89555385    1.58287238    0.44185697
C     -2.89127237   11.32746232   28.05848626
H     -1.13432337   11.65653825   27.18009413
H     -3.36127380   11.53488604   28.98969047
H     -2.99694797   10.19284411   27.79450870
H     -3.51383417   11.93004414   27.37792781
O     -1.55950745   11.68258822   28.06185472
C     -1.64564262    6.85546152   35.48967408
H     -0.12630557    7.45458100   34.47763825
H     -1.83278511    7.88408149   35.63112518
H     -1.02605464    6.48938779   36.24790137
H     -2.53077665    6.27996412   35.44243520
O     -0.93129077    6.78987887   34.30106712
C     -2.26601343   10.74099278   38.82988576
H     -1.36018706   10.15945609   40.37712875
H     -1.47387858   10.45743496   38.09099536
H     -2.13333312   11.77831102   39.17633317
H     -3.31614243   10.67002009   38.40103956
O     -2.23472832    9.84524251   39.93318395
C      7.94721627    7.32154121   41.28340112
H      9.30714074    6.35321380   40.26471503
H      7.79901122    8.32420733   40.86018424
H      7.06399199    6.90770962   41.67554259
H      8.61453944    7.37625398   42.20891410
O      8.30171065    6.37400294   40.22345741
C      5.25042689    3.91904894   24.30505183
H      6.76242550    3.52468450   25.71392719
H      4.75486210    3.23242895   23.62320514
H      4.60975966    4.55779281   24.77094148
H      5.92233065    4.54750435   23.72120674
O      5.89084431    3.14999274   25.36222153
C      1.16536671    6.37345189   39.26959557
H      2.88764086    5.72173098   38.51237637
H      1.26240063    5.64612696   40.03682375
H      0.07160078    6.14663603   38.88304420
H      1.46199549    7.37045654   39.77904074
O      2.09639164    6.13922900   38.15327099
C      2.99666546   11.39262012   20.87155449
H      4.88780971   11.47768268   20.91410862
H      2.29090083   11.03232653   19.99112036
H      3.21019523   10.61704835   21.56680724
H      2.54454871   12.21453714   21.49821276
O      4.26235758   11.70096876   20.18243967
C      6.34872336   11.04408695   41.52829285
H      8.36017435   10.78442652   41.24933738
H      6.36316259   11.76667596   42.45418129
H      5.62672566   11.35956304   40.75665221
H      6.01045598    9.99587213   41.81404107
O      7.57484664   11.10948220   40.72574519
C      5.32998861    6.75934987   11.25678893
H      3.63526102    5.81231841   11.33438765
H      6.28733443    6.72958443   11.90597530
H      5.12282240    7.85293015   10.97662639
H      5.43632100    6.16179307   10.41765296
O      4.26816063    6.16963742   11.96451268
C      5.65599013    0.66891324   53.18516130
H      4.02780644    0.58121973   54.29334966
H      4.99351525    1.41258442   52.76270819
H      5.84405688   -0.15661464   52.52578286
H      6.61377664    1.19918954   53.56320534
O      4.87788658    0.17610055   54.32873780
C     -0.04273157   11.65029393   31.15655000
H     -1.91049605   11.80012876   31.74273211
H      0.46840818   11.98756330   32.04359614
H      0.50503153   11.99627914   30.26239959
H     -0.18315772   10.58278827   31.16336293
O     -1.29678242   12.25585971   31.09140833
C      2.51948983    4.15090731   32.39353505
H      2.99854907    5.98860990   33.20594929
H      2.89641719    3.49773649   31.49921398
H      1.43006555    4.26138944   32.26958056
H      2.85798586    3.79194747   33.34566805
O      2.98383345    5.47986858   32.37357485
C     10.78328458    2.07055662   18.04062472
H     11.46875047    0.88502779   19.57409464
H     11.19820974    2.71447910   17.26250500
H     10.12232779    2.66696094   18.57576617
H     10.36866528    1.29011580   17.42385112
O     11.79252623    1.59024552   18.89393789
C     -2.43248561    6.40341082   22.44769071
H     -2.94278939    4.56518524   22.30476278
H     -1.97321291    6.46925700   23.52702408
H     -3.05950831    7.30267132   22.16350847
H     -1.47810277    6.29480576   21.84337910
O     -3.45538611    5.36199486   22.45096108
C      4.48397712    7.02611273   35.15270395
H      2.54244436    7.47378613   34.98400288
H      5.01862347    6.90245093   34.26601393
H      5.02604478    6.48556708   36.01525775
H      4.58849972    8.16642892   35.36756762
O      3.16263725    6.65725108   34.83216130
C      6.94400606   12.39420880   12.59244868
H      7.24722467   11.31646701   14.20607898
H      6.90955758   12.02728205   11.47631138
H      7.51067053   13.26472029   12.74259180
H      5.91205150   12.59499898   12.89896862
O      7.49643724   11.20183724   13.23268210
C      7.23602247    9.83022461   18.62674531
H      8.08302696   11.57477794   18.68271393
H      6.07704188   10.06836765   18.46512672
H      7.23923637    8.91515425   19.25009173
H      7.63165867    9.61708891   17.48377848
O      8.09524050   10.80090079   19.32815885
C      2.84427755    1.67826066   40.44896671
H      0.90589348    1.38741624   41.06347928
H      2.51587699    1.57230124   39.38573770
H      3.36812459    0.81356958   40.87427717
H      3.68735356    2.43192961   40.76985631
O      1.65393611    1.93961248   41.25202150
C      7.29948598   10.69080028   29.32960574
H      5.45962159   10.00909225   29.14116267
H      7.78191236   11.66999973   29.14063660
H      7.84489485    9.89995507   28.73707273
H      7.52502840   10.51135158   30.32521938
O      5.95573196   10.81896009   28.97131419
C      1.32508530    5.76223633    6.41886966
H      2.47751995    7.09145396    7.49428955
H      0.18494365    5.87277251    6.56837187
H      1.58741808    4.70367013    6.25930912
H      1.59132450    6.32669335    5.43831619
O      1.98929250    6.25179338    7.58741357
C      4.43942379    7.67612931    6.20607655
H      5.14484351    6.91748639    7.80444681
H      5.34162419    8.30181566    5.89066167
H      3.46757713    8.14603889    5.89011819
H      4.53607288    6.61974387    5.80929308
O      4.51626732    7.58270068    7.63760296
C      7.01037092    2.28218221   21.28440644
H      8.84179643    2.45738400   22.04740907
H      6.43085014    1.48863796   21.79504908
H      7.43049520    1.84544026   20.31373638
H      6.49628588    3.14442127   21.02940349
O      7.93628338    2.83545387   22.20825543
C      6.85578921   -0.41887757   24.58311526
H      6.05127218    1.40646184   25.29527958
H      7.64728094   -0.77386075   25.20094057
H      7.35980531    0.09303131   23.81898486
H      6.33821496   -1.27946739   24.07773881
O      5.87241413    0.41729591   25.24543530
C      5.39002739   11.20721725   15.60496364
H      7.03525348   11.98470856   16.57339711
H      4.88356935   12.04783878   16.07746027
H      5.18836711   10.26578847   16.11320699
H      5.23841488   11.26138982   14.53303645
O      6.79928318   11.49422607   15.64555062
C      6.24733327    2.42561719   33.35263368
H      7.89090100    3.34461319   34.04207365
H      5.90969506    2.46478496   34.39396762
H      5.64541030    3.18746872   32.72963586
H      6.20847988    1.51700625   32.78835782
O      7.70112023    2.64775244   33.39882415
C      4.52472277    3.89847286   36.54973098
H      6.46115660    3.78990627   36.73097792
H      3.69413222    4.54013422   36.85611044
H      4.16046577    2.85426564   36.74670817
H      4.60724856    3.95666723   35.44258620
O      5.75257301    4.08955693   37.29228465
C      7.57621011    9.85607232   25.25072366
H      9.37395954    9.97597718   24.43407737
H      7.34125092    8.94713066   24.59439647
H      7.09795659   10.84875546   25.03306621
H      7.34709554    9.50367214   26.23200961
O      8.98962644    9.94669497   25.32856688
C      5.30347252    6.87080894   15.41602606
H      4.07240030    5.40024281   15.65963051
H      6.09311762    7.10196220   14.73267433
H      5.76069406    7.08449506   16.39105683
H      4.46175890    7.47714795   15.24615064
O      5.11511594    5.45539484   15.39145461
C      1.20370398    2.07131376   17.54762375
H     -0.45548749    1.11878361   18.07159638
H      1.65817981    2.23610688   16.56348226
H      2.05404705    1.92941922   18.28525158
H      0.67495301    2.94809839   17.79656235
O      0.29754575    0.92494357   17.55170266
C     -3.42827206   11.62505017   22.65489140
H     -3.31834370    9.82868769   22.03534273
H     -4.40875717   11.90919133   22.33046258
H     -3.35515894   12.09738203   23.65776517
H     -2.58320469   12.18382381   22.14425582
O     -3.06532222   10.23764150   22.91538404
C      2.37550719    6.27578691   26.87888338
H      0.98895954    6.67916625   25.62668626
H      2.26928102    5.24434283   27.27784291
H      3.41280762    6.63837196   27.11222725
H      1.84278763    6.94597617   27.53082097
O      1.89484738    6.45636530   25.52479014
C     10.94986529    3.00446821   32.95016855
H     12.79311111    2.39343493   32.82921525
H     10.71021128    2.50414485   31.98385521
H     10.06818010    2.84130316   33.61185234
H     11.24253724    4.05225851   32.74018332
O     12.15891314    2.43955357   33.52407455
C      9.40697446    4.29364127   37.14517108
H      8.25919654    5.76892140   36.58202223
H     10.06755804    5.11741396   37.53408352
H      9.95604832    3.52695750   36.52887309
H      9.05069902    3.73989790   38.05486285
O      8.34849765    4.78264047   36.30599718
C      1.00902403    7.26294642   30.65874344
H      2.78238209    6.70252019   31.39641175
H      0.68906990    7.87045926   29.73690318
H      0.79956914    6.25084704   30.24397706
H      0.32122551    7.45763517   31.60003187
O      2.37876639    7.56079452   30.98470043
C      1.56850296    5.01407217   43.21121315
H      0.73737713    3.45247640   42.01089234
H      1.98111123    4.43469351   44.13218590
H      1.13827788    5.94119659   43.57343073
H      2.35761837    5.28965705   42.58861112
O      0.48132833    4.22800963   42.61263860
C      5.27643757    4.65045927   42.96630744
H      5.78557195    5.78891558   44.63939671
H      4.77234067    3.82825954   43.58148402
H      6.24523178    4.47879702   42.45916092
H      4.77898530    4.99594254   42.12310549
O      5.40074299    5.88132542   43.76043065
C     -1.39628565    3.59553894   38.92347566
H     -2.04362086    4.53711930   40.51518442
H     -1.75868827    3.25234367   37.96605389
H     -0.70584138    2.84702382   39.27377143
H     -0.87280804    4.63245654   38.87000250
O     -2.43759387    3.77895328   39.88408242
C      0.69911527    1.41990328   26.19984748
H      2.45453415    2.06188513   27.12233316
H      1.19445833    0.71770528   25.46304665
H      0.28137819    2.20643217   25.57164662
H     -0.18006154    0.86314760   26.53256957
O      1.46240140    1.82649058   27.36293528
C     -2.73398721    9.34898497   31.69219812
H     -4.43289673   10.02292734   32.54101275
H     -2.05184046    9.58049969   32.54268702
H     -2.20565891    9.48155360   30.74526191
H     -3.25058551    8.41308715   31.81032115
O     -3.82949354   10.31223746   31.74637672
C      6.90105878    4.62737377   17.77829058
H      8.06097267    4.55137870   19.46567483
H      7.37663296    5.55482586   17.37990225
H      5.92528369    4.77763958   18.25030586
H      6.79675574    3.85598601   16.94370157
O      7.75663291    3.99550022   18.68346792
C     -0.55622954    3.92087514   29.19264006
H      0.86834447    3.05027457   28.42473298
H     -1.07424346    3.88033149   28.19330365
H     -1.26738163    3.44426797   29.97971401
H     -0.54953028    5.00748330   29.51178558
O      0.78212791    3.65181678   29.14623705
C      4.68094974    3.00734429   28.44046637
H      4.47620679    2.56739439   26.55689344
H      4.02123611    3.15344931   29.36490366
H      5.32004713    3.86327723   28.37648628
H      5.29866607    2.18682801   28.63877362
O      3.83692331    2.82955781   27.21569020
C      3.53662486    7.08126376   20.02699947
H      3.00375131    6.65646233   21.81781724
H      2.76353381    7.56929967   19.38859088
H      3.41879718    5.96986010   20.02088893
H      4.51298418    7.31076756   19.55466166
O      3.47770338    7.46819649   21.40822845
C     -0.98764279    8.47040039   14.58354796
H     -0.30153264    8.53448128   16.51307065
H     -0.10950934    9.06024240   14.07907964
H     -1.75856470    9.18567093   14.56553274
H     -1.31067932    7.67466933   13.87749982
O     -0.82198480    7.90448413   15.86532544
C      3.78245212    9.51977376   24.38209672
H      4.75351049   10.89083666   25.22019478
H      3.89069190    9.22058510   23.37901764
H      2.80023670    9.37831998   24.77184728
H      4.48028952    8.84182065   25.07460095
O      4.21718716   10.83823111   24.38840068
C      8.23327925    2.47623029   29.67196866
H      7.98357488    2.74805844   31.70849740
H      7.67630619    3.28770928   29.10410106
H      7.57886953    1.67011895   29.66940774
H      9.07746340    2.12351761   29.10913879
O      8.58800754    3.06501531   31.02631590
C     -2.57445854   11.65311513   15.74153848
H     -2.85431005   11.24451163   13.73377450
H     -1.89128851   12.38004543   16.15529025
H     -2.41967775   10.60369842   15.95126959
H     -3.59776337   11.92473338   16.10884646
O     -2.39698141   11.92914716   14.33432087
C     -2.15670054    5.16831994   18.26379910
H     -2.17138324    6.41623147   16.65439054
H     -1.51404386    5.89227736   18.85012500
H     -3.09320629    4.90597080   18.75458809
H     -1.55661607    4.26702190   18.08468725
O     -2.72454314    5.74312999   17.06257465
C     -0.13216700   12.30581968   11.93066609
H     -0.80161363   11.71934684   13.75769812
H      0.51926978   11.76496014   11.28271269
H     -1.16085118   12.27940508   11.51131174
H      0.22259807   13.39106078   11.90907326
O      0.03277092   11.66842496   13.24966229
C     12.05969742    0.41428452   37.45950541
H     12.48447944   -0.11411246   35.66521062
H     11.20638190    1.00892728   37.70243043
H     12.17365526   -0.44187605   38.30338108
H     12.85724371    1.02506569   37.25744311
O     11.75729622   -0.19180549   36.18013951
C      1.93320638    9.70425550   16.64000514
H      0.40266032   10.07661325   17.79033807
H      2.71207171   10.44913684   17.09253472
H      2.08676874    9.44074558   15.59298151
H      1.98091120    8.71621839   17.27744132
O      0.56592390   10.07692743   16.80013496
C      2.42276476    2.82328313   12.86900119
H      0.75986498    3.17332636   13.83189978
H      2.12280558    1.86916568   12.26936346
H      3.41489937    2.59677723   13.19978563
H      2.26685928    3.72218194   12.34483201
O      1.66283237    3.06898663   14.10191312
C      0.77514766    8.77544027   36.51833656
H      1.68200649    9.62266551   34.93995360
H      1.20852737    9.54314609   37.06059516
H      1.20817411    7.91005752   36.93886371
H     -0.36556636    8.76344993   36.56753910
O      1.20275863    8.75027368   35.18005537
C      4.71042127    4.41033501    6.51573362
H      3.30841923    3.65140488    5.17273048
H      5.59158323    4.93229987    6.68934732
H      4.69774114    3.54512831    7.18502590
H      3.91667966    4.98607405    6.99597609
O      4.46644547    4.04592270    5.15055444
C      6.84191325    3.08929869   40.23100689
H      5.48103132    2.99164247   38.73108419
H      7.90599972    2.93307452   40.17046099
H      6.61676503    4.12410999   40.15645291
H      6.67333126    2.79076701   41.25201522
O      5.93277403    2.35409788   39.31539373
C      3.84205458   10.30321213   31.16835831
H      3.22287345    8.65983157   30.16838442
H      3.33082244   11.14746280   30.68086347
H      3.28828632    9.70437971   31.91863117
H      4.80262925   10.59883534   31.55135540
O      4.05642404    9.27207257   30.23808785
C      6.97099485    6.25512351   21.42218619
H      8.95534966    6.03905736   21.12551188
H      6.23835911    6.82574687   20.96301688
H      7.28460732    6.84915117   22.23324433
H      6.47617823    5.41591543   21.86769947
O      8.19766286    6.08000056   20.52595282
C      6.63293119   10.19356921   33.22302418
H      7.93438789   10.78411216   34.50224950
H      6.47879282   11.13227016   32.54880455
H      5.90452249   10.25600906   34.04319209
H      6.40380540    9.20449973   32.69220923
O      7.90807453   10.05736731   33.78401248
C      3.48552146    9.81540236   12.40704526
H      1.67677179   10.66206435   12.96085849
H      3.36726769    9.15381318   11.46849635
H      4.26973211    9.36035769   13.06434198
H      3.77441316   10.89796489   12.04814310
O      2.28273848    9.86732994   13.17740225
C      6.41322379    9.60637670   22.14352181
H      5.77430682   11.37998933   22.73311846
H      6.02433744    9.32941512   23.19913894
H      5.60849604    9.13160011   21.51286390
H      7.43206619    9.20940980   22.05517974
O      6.39925159   11.01096470   22.07560654
C     -1.40786446    7.24932745   41.56912901
H     -0.49167085    5.54928119   41.96486796
H     -2.32526155    7.58497004   42.02462028
H     -1.48453874    7.77839847   40.60769129
H     -0.53368639    7.78569177   42.00852935
O     -1.38682645    5.89270452   41.54928810
C      1.40285937   -0.12874667   36.58094951
H      0.77101867    1.08147439   35.11214851
H      2.18177201   -0.88874683   36.61676094
H      0.59055487   -0.31327967   37.18135549
H      1.97000879    0.69280197   36.93749418
O      1.04940431    0.10516698   35.21591304
C     -0.10401931   12.10010539   41.85496078
H      0.09044505   11.74373648   40.02721124
H     -0.89151342   12.81292534   41.74043130
H      0.80874341   12.62194728   42.00375458
H     -0.29802810   11.47092753   42.76348608
O     -0.02741884   11.11980114   40.76073887
C      1.47567776   10.24969556   28.22570072
H     -0.49089003   10.73462466   28.32596798
H      1.77011347   10.19263507   29.30193526
H      2.16408255    9.41799152   27.78316041
H      1.68058875   11.21154600   27.73075445
O      0.08584864    9.88487716   28.08011659
C     11.19928721    1.92659115   23.75661321
H     12.02881988    2.52259870   21.89667003
H     12.27929066    1.82328320   24.11810904
H     10.89436280    0.93040900   23.54620222
H     10.64786430    2.41615279   24.48932032
O     11.13231330    2.54160591   22.41192656
C      0.17646335    8.71387476   22.43774410
H      1.85452365    8.41939883   21.49541351
H     -0.74248126    9.11163412   22.03527159
H      0.56031778    9.13044782   23.38344674
H      0.02281859    7.68267381   22.53691999
O      1.03841076    8.99232343   21.31131857
