  673
# Step    60000,  Time   60000.0000 fs
Al     3.34162195    0.40372006    9.49628427
H     -2.88746195    9.09483474   13.05795148
H      9.63957635    2.98080041   13.26825456
H     -3.68706608    9.86714731   40.89615865
H      9.50934101    2.57978482   40.68020114
O     -3.84699964   11.58932819    8.11928870
O      2.44765320    1.99678378    9.61372059
O     -3.74049658   11.56325742   10.90220293
O      5.10354722    0.69678554    9.49315733
O     -4.46415358    8.85987506    7.58409677
O     -1.96716649    9.58437383    7.79037220
O     -4.56877664    9.00085810   10.24693845
O     -1.91622452    9.73560113   10.54716207
O     -3.39098291   10.45631200    5.77652120
O      0.16018754    0.59246155    9.00984568
O      1.38078842    2.19524831    7.10330552
O      0.02589780    3.13003126    9.24666636
O     -3.66637401    9.36049203   12.54171563
O      7.21064622    9.88787217    8.80282638
O      0.34777530    9.25679352    9.15741404
O      7.42432560    7.39434238    8.79906744
O     -1.48097866    7.30588719    9.48933883
O      0.67271212   11.86925468    8.22158155
O      5.35729721    1.08821393    6.80217180
O      6.94341683    2.39943354    8.42295942
O      6.06431742   11.38173697    7.10104210
O      5.18084305   11.29126360    9.55366469
O     -3.70552626   11.73634797    3.50088276
O      0.54699644    0.44923140    5.20328664
O      2.79017515    1.68155552    4.86387334
O     -1.72904461    4.85789619    9.24569271
O     -4.28047160    9.12882113    3.70323547
O     -1.73164347   10.03256131    3.69886618
O      0.59098219    3.07439892    4.72564501
O     11.89347530    2.59535202    7.67675761
O     11.20286391    2.56381234   10.30362072
O      9.80421411    6.33853219    8.95641487
O      2.66853443   10.48571524    9.22122830
O      1.50925599    9.79415454    6.86120323
O      5.20796599    0.87261667    4.11025817
O      7.45574327    4.79793767    9.14699838
O      7.28205024    9.88443015    5.11039935
O     -2.05256021    6.43054311    7.04897871
O      0.69781094   11.84458559    5.56335079
O      8.52316145    5.67129006    6.94811486
O      5.39947765   11.57925665    4.55437834
O      3.64517634    1.68034331    2.25089128
O      7.22188320    2.14355138    4.92389298
O      9.42844814    3.01982789    8.10560613
O     10.02986118    0.58559612    7.88999194
O      0.67019678    9.15446602    4.49755624
O      7.86715554    7.40211867    5.11638693
O     -1.28443428    7.51989328    4.87480379
O     -1.12831866    4.85313150    5.24576936
O      7.26201315    8.42892949    2.70961993
O     11.85397426    2.70123428    3.56816945
O     -0.40432900    8.10266064    2.31521764
O     -0.26777464    4.70932579    2.74394051
O     10.30290386    2.05367825    5.71101317
O      2.89485783   10.34013266    4.70563676
O     10.18715969    5.82901554    4.76116010
O      7.69651064    4.84256155    4.52731818
O      9.97949406    0.57564394    3.53332612
O      9.28785896    3.15444271    3.45746095
O      2.01924391    3.74597818    2.15288863
O      4.33742684   10.61025590    2.34486018
O      6.82082807    3.18691307    2.51531609
O      4.49458174    4.37289654    1.63683970
O      2.97110705    2.73939425   53.91300000
O      1.52942020    6.33279662    1.51301933
O      6.73182951    5.83560904    1.74246180
O      4.78843665    7.81270510    2.01452521
O      2.20273303    8.91252957    2.13610726
O      0.22164534    4.32368902    0.16768744
O      6.73196514    7.98158405    0.24622789
O      0.55168795    8.36801924   53.95484123
O      6.54170729    3.75760100    0.08332661
O      3.82889295    9.31460575    0.02500000
O      1.84804117    3.78334352   51.81691274
O      4.46822078    4.36000654   52.52955052
O      1.31391327    6.21514338   52.36404330
O      3.79041352    2.07787638   51.49327477
O      6.57666405    6.02156384   52.48579362
O      2.36832529    8.50278032   51.83027791
O      5.01404398    8.14393013   51.98964330
O     -0.65266643    4.66168574   51.65806987
O     -0.24165516    8.05802734   51.39743230
O      7.39708004    8.37411741   51.67158950
O      6.69156291    3.60344869   51.42983288
O      4.04824592   10.60749601   51.81488288
O      2.25673452    1.84343986   49.47696572
O      4.68254369    0.84609559   49.22899345
O     -0.09680763    2.84947413   49.68752149
O     -1.02736283    5.24759442   49.19462752
O     -1.75987863    7.88209010   49.26480190
O      0.24394355    9.60825406   49.14961220
O      8.10736985    7.22631915   49.29290783
O      7.40927399    9.81507641   49.46707890
O      6.66684551    2.73576127   48.93428763
O      8.27007830    4.78186125   49.79322465
O      5.02463093   10.81607127   49.32590153
O      2.31510265   11.18180034   49.71929669
O     -3.77979774   11.71058973   50.72916014
O     11.21678235    3.38051125   50.50349451
O     -1.68242459   10.17368028   50.67048688
O     -3.99894777    8.87232621   50.69446989
O      8.76390968    2.16988386   50.45224929
O     10.79349748    0.75812531   50.56748245
O     -0.05135262    0.36518497   49.22990082
O      7.07955610    0.08081275   48.41777709
O     10.31613843    5.86209528   48.46652801
O      0.61403846    2.15477820   47.30902536
O      5.67022484    1.60941162   46.88776721
O     -1.53856441    6.59753101   46.93575007
O      8.01622570    5.59131779   47.24026034
O      6.62438719   10.88207137   47.14752864
O      1.72913334   10.41006046   47.11684372
O     -3.52436710   10.41597073   48.54072882
O     10.34777989    2.04005700   48.29969597
O     13.41134393    0.44884610   45.39056599
O     -0.01120850   11.70380670   45.74027040
O      9.93626322    6.10873131   45.42411804
O      2.19922462    1.59658373   45.18803238
O      0.13999056    3.04944902   44.80096348
O      4.62216037    0.93373646   44.50807266
O      7.03091984    2.11567394   44.71422577
O     -1.78646917    7.57466943   44.62175374
O     -1.48856845    5.00514902   44.77099506
O      7.67294554    7.40479335   45.23496693
O      6.89677080    9.81339048   44.77070608
O      0.40319212    9.20672854   44.92457550
O      7.61044203    4.75951217   44.71237967
O      4.73543311   11.01435505   45.11975764
O      2.23232325   11.05067100   44.61181207
O     -3.64777794   11.42317419   46.05377416
O     -1.86736998    9.54177318   46.52908576
O     -4.76957969    9.20840224   46.62160577
O     11.56020896    3.07875561   46.19345351
O      8.87121272    3.22735569   46.28433601
O     10.02142515    0.87027391   46.03329506
O      8.55594984    2.86056759   10.63322374
O      9.76340162    0.38423379   10.71760428
O     -4.08568504   11.57393016   43.49852960
O     -1.97343278   10.15029637   43.98144078
O     -4.52085489    9.09777586   43.82431929
O     11.74608145    2.93605209   43.27632052
O      9.24731566    2.95857669   43.66721407
O     10.51983939    0.53544745   43.34882547
O     10.02338388    2.13751372   12.78705963
O     -3.00030844    9.66949893   41.63493554
O     10.21225487    2.02889971   41.23791811
Si    -3.51726582   10.18407041    7.34017496
Si     1.11258285    1.98130987    8.70905927
Si    -3.42702182   10.01761270   11.06796054
Si     8.37089950    8.87491229    8.93449167
Si    -1.28958675    8.95698828    9.20087566
Si     6.19092183    0.93389749    8.31184478
Si     6.49444207   11.39180127    8.63297505
Si    -3.33658266   10.34204548    4.15912067
Si     1.29540028    1.80698895    5.50904468
Si    -1.53411471    3.32333129    9.11447044
Si     1.30442222   10.39859914    8.38198025
Si    -2.33645733    6.24572136    8.70913431
Si     8.29161523    6.03688053    8.51088617
Si     6.59076668   11.33856335    5.54351845
Si     3.62425949    1.03059435    3.69686486
Si     6.22509167    0.91312415    5.37126262
Si     8.07447759    3.28658489    9.15004957
Si     7.94926274    8.67685866    4.18769257
Si    -0.72912830    8.67983632    3.85465393
Si    -0.70436417    3.78247207    4.01757099
Si    10.42514526    2.07351636    7.28467091
Si     3.57410042   11.83962651    9.31395289
Si     1.41646349   10.35559716    5.37529343
Si    -2.05526679    6.16847117    5.38222511
Si     8.60529275    5.95544547    5.30265704
Si     3.97190852   11.25816957    3.79699365
Si     7.72291217    3.35737486    3.91792302
Si     3.32694169    3.10830310    1.51087592
Si    10.35586723    2.09059225    4.03231905
Si     0.86711397    4.78430435    1.60140988
Si     6.32931525    7.40871892    1.68441490
Si     0.93605730    7.93596248    1.44698163
Si     6.14375510    4.33178081    1.54908178
Si     3.75872786    9.12684772    1.62306021
Si     3.29217744    3.27924221   52.44340410
Si     0.68682818    4.66864553   52.60076779
Si     0.96970539    7.80046020   52.44670118
Si     6.37007645    7.62197543   52.63395825
Si     6.11208580    4.51077354   52.63953452
Si     3.79382696    9.08967081   52.43586600
Si     3.42020796    1.11737194   50.30645816
Si    -1.07013361    3.94308376   50.18172826
Si    -0.77538016    8.92902780   50.20122021
Si     8.19075933    8.59357493   50.25905331
Si     7.64354966    3.33369341   50.13390624
Si     3.80447946   11.31734588   50.32443981
Si     0.73556600    1.76434949   48.80954841
Si     6.03195414    1.31807225   48.41321275
Si    -1.92248948    6.42015146   48.54530373
Si     8.73907441    5.92683741   48.67285889
Si     6.53864343   11.04267469   48.74576243
Si     1.19280239   10.83040719   48.61070138
Si    -3.24766521   10.24725285   50.13635368
Si    10.32461318    2.16958774   49.91408586
Si     0.69392346    1.76437044   45.65777299
Si     6.01748677    1.06332768   45.44336596
Si    -2.16873560    6.30386257   45.44590001
Si     8.30436267    5.92981925   45.69463506
Si     6.26448471   11.04263202   45.59774575
Si     1.00167485   10.54592541   45.58445900
Si    -3.41769085   10.09036100   46.98171464
Si    10.21019689    2.34688107   46.71817097
Si     3.17295707    0.30489437   44.79907310
Si    -1.34865891    9.05368829   45.01860529
Si    -1.42310041    3.44532125   44.74047018
Si     8.19079963    8.90522811   45.15342744
Si     8.16507709    3.30456398   44.79143129
Si     3.50247686   11.96135370   44.83590188
Si     9.86533400    2.02873942   11.14491273
Si    -3.41400245   10.03317961   43.14501651
Si    10.38720374    2.06267240   42.82560204
H      7.30577034   10.74221552   20.94224658
H      7.11932954    5.64628593   22.30738834
H      8.53485455    5.88805045   22.80245403
O      8.02974293    5.80882696   21.99090465
H     -3.46760633    7.88478451   20.68486459
H     -1.84923374    7.76468331   20.83031293
O     -2.69956872    7.30182450   20.76521196
H     -5.55368272   11.45569016   16.21886989
H     -6.74508208   11.12615728   17.17327733
O     -5.84338248   11.38504000   17.16790981
H     11.15515330    2.90895919   28.59335256
H     10.87099188    4.22589504   29.29550984
O     10.72241485    3.26648441   29.35772727
H     10.11017957    6.15747138    1.25805910
H     10.14525664    4.81950522    1.95044316
O      9.59559675    5.65659851    1.88562497
H     -0.81173014   10.62278603   23.14326460
H      0.61377549   10.34515742   22.57573850
O      0.20872428   10.66808026   23.33242013
H      9.48673363    6.14731652   15.67096695
H     10.68020211    5.15013858   15.80827632
O     10.08741930    5.72627568   16.33509994
H      1.38005775    5.21086849   36.59985934
H      2.24117780    4.08258665   36.01057406
O      1.50769198    4.22191396   36.68479502
H     -0.88074008    6.48380720   24.06909090
H      0.63975514    6.20923190   23.98988306
O     -0.11052179    6.50605144   23.48131448
H     -7.96645471   13.06482616   16.23015815
H     -4.47523988   10.21981318   17.45767312
O     -3.98796342    9.32716121   17.46578844
H      1.84378501    6.11502874    7.98989965
H      3.23467329    5.51077803    7.96281315
O      2.69546838    6.26281663    8.34618364
H      5.64801168   11.26583317   31.21440789
H      7.32401746   11.23549261   30.83380806
O      6.43646088   11.46616141   30.48517592
H      9.62212004   -0.12584997   17.31073673
H      3.83422414    5.85410761   20.56999380
O      8.64812493    0.05519455   17.21520939
H      0.00580523    8.66263337   39.69916805
H     -1.51412585    8.25031717   40.12115183
O     -0.69637033    7.93172910   39.77190681
H     -1.74231753   11.23178639   14.23589810
H     -1.64069840   10.33668004   15.45748445
O     -2.07633519   11.16369826   15.15268933
H     -1.57672506    7.32874662   13.03526587
H     -1.04177023    8.75001328   13.12239113
O     -1.60108321    8.10575774   13.63604128
H      5.33197218    0.50053593   -0.58044568
H      3.96661842    0.21627398   -0.17509120
O      4.84688711    0.07564819    0.13564445
H     -4.45866342    8.97721981   18.22175814
H     -3.07589017   10.49735146   22.47888823
O     -2.51118431   10.65840253   23.31167993
H     -5.08961904   11.73524766   13.82045237
H     -4.32177521   10.47113095   14.28471579
O     -5.04701926   11.06675948   14.50244862
H      1.27024224   11.85836671    1.27985020
H     -0.22148061   11.45813538    0.91406544
O      0.55925682   11.15558445    1.41898242
H      3.09028407    5.09529868   50.44273175
H      3.56611955    5.86367907   49.13489057
O      3.65439662    5.80732327   50.10266845
H      8.10604453    7.17672061   12.58245657
H      9.56285270    7.00143925   12.05473915
O      8.82691392    6.44556796   12.51391160
H      2.52444000    5.43884486    4.15349346
H      2.08192179    6.87430077    4.83258572
O      1.99574548    5.88863566    4.81924271
H      2.50713964    6.13879711   27.76121032
H      2.04804589    7.40242631   27.05426866
O      2.87479635    6.94883427   27.18432930
H     10.83670281    5.12646574   33.89342543
H     10.75175594    4.49899276   35.37729730
O     10.33254765    4.64757497   34.55653117
H      8.97630639    5.83087575   27.03119986
H      9.62175254    4.82618061   27.99697654
O      9.84956995    5.36874534   27.22195749
H      4.60790144    9.48881666   35.45392119
H      3.36696697    9.85473762   35.94143358
O      3.85216518   10.04714031   35.14038283
H      1.82612653    6.83865979   14.65515729
H      0.08601680   10.86134229   12.54065708
O      0.07038605    9.99514116   12.93967116
H      2.48309427    1.76620239   21.63879783
H      1.00383575    2.11621317   21.09395169
O      1.50034878    1.75276723   21.86201960
H      9.37164571    4.86957032   13.48197610
H      8.85192536    4.00601956   14.73046770
O      9.58951372    4.06174442   14.00890356
H      3.50182485    7.12299297   34.60597779
H      3.47931948    6.76953481   36.09730605
O      3.83922382    6.52157600   35.27768064
H      8.54582116    4.00189194   39.33280842
H      7.44369466    3.11481470   40.05730532
O      8.30494623    3.48433678   40.20073030
H      4.93622236    8.96053662   26.17672667
H      8.64451916    9.98421912   20.67343108
O      7.76754494    9.92742859   21.03789318
H      5.20411772    3.65746577   34.94306062
H      4.36918740    4.85706462   34.42453246
O      4.20638842    3.97746957   34.87243437
H      8.32304458    4.65996048   37.10203780
H      9.76172339    4.58386145   37.91218839
O      8.79625498    4.61255798   37.93244645
H      4.16565651   10.53211633   32.61929109
H      3.93653877   12.06942694   32.48990277
O      4.03630905   11.23807332   31.90169208
H      3.62708789   12.35044174   40.03680805
H      3.55092549   11.57128403   41.33717216
O      3.67117690   11.43480904   40.35027527
H      0.42745670    9.76537672   33.31473662
H      0.24392401    9.18787252   34.63353391
O      0.60594728    9.94304897   34.22718498
H      3.53624028    2.41293140   16.03761904
H      2.75404830    3.50968889   15.57066347
O      2.67350489    2.56362127   15.62565794
H     -2.14568461   10.35354731   26.94812261
H     -1.51702495   11.40030465   28.12017910
O     -1.55151899   10.43056734   27.76677585
H     -4.13401259    7.66076156   52.80891702
H     -2.65544412    7.53678867   52.61989291
O     -3.38565528    6.95816840   52.74982728
H      6.45963553    8.16175052   30.17924414
H      4.96461903    7.82364058   30.38047633
O      5.83884155    7.74540872   30.79624292
H      5.87333512    3.43931724   19.02959694
H      4.92425849    4.54383845   19.56615477
O      4.98638930    3.74230415   19.07497908
H     -4.16097369    8.19493175   32.61727103
H     -5.63702072    8.53956486   33.22336312
O     -4.78826631    8.92486433   32.92413249
H     13.10445875   -0.33078382   37.70654877
H     11.83585845    0.32513032   38.15719560
O     12.69182339    0.58113387   37.77627392
H      5.44529966    0.10910121   18.84499786
H      6.77898776    0.74835093   18.59863726
O      5.92794245    0.94060750   18.95318060
H      3.11317904   10.68141673   30.24890343
H      3.42530102   10.54460232   28.65988823
O      2.79526730   10.35223828   29.36750537
H      7.57839090    1.33732856   27.49190847
H      7.82780275    0.07763227   28.19153738
O      8.14721294    0.54821528   27.36808835
H      3.25644068    1.97682469   14.27464847
H      3.15702789    0.80039139   13.00289858
O      3.63690440    1.57722844   13.39163300
H      6.85891751    8.64205434   12.20630152
H      6.12741233    7.52215927   13.20534084
O      6.88316214    7.95669833   12.84856895
H      0.86939089    4.63280402   13.09755249
H     -2.39672175    3.62536887   18.06263259
O      1.54959110    7.59837265   14.12172725
H      0.58826922    7.51151487   14.03278705
H      4.99189343    6.58098172   21.57005693
O      4.41989423    5.70919874   21.31180383
H     -2.26272863    6.83163067   19.00272921
H     -2.59738597    6.56176736   17.44995667
O     -1.91671449    6.74224718   18.08214685
H      4.91654359    3.56588243    7.32976151
H      5.17337137    5.20037934    6.97228568
O      4.60724790    4.48888121    7.50216815
H      3.63606562    3.03918187   33.52263274
H      3.39639705    1.42681648   33.56742866
O      3.02044273    2.28879166   33.16237393
H      9.71782471    4.30158730   24.79877366
H     10.45763293    2.96050289   25.36487463
O      9.90779257    3.38425656   24.69982736
H      6.38913952    8.55628843   21.83609415
H      4.85346899    8.36282812   21.35015108
O      5.51122062    8.03008788   21.96702562
H      8.02617223    0.48089452   32.73701814
H      8.31500227    1.71966164   31.78625500
O      7.74739808    0.80899717   31.87319016
H     10.95897480    0.69239998   15.50318565
H      8.66276925    0.02050489   16.16224592
O     11.44824726    0.81499348   16.38798203
H      6.22457129    8.51465333   17.44231607
H      7.21710307    7.73634497   16.54018485
O      6.77468778    7.75536112   17.45003245
H      2.35906055    5.41569469   46.50913920
H      1.70730540    6.70419113   47.21478138
O      2.40901060    6.03037605   47.26054250
H     -6.23320357   11.01398641   27.52858915
H     -4.72818800   10.37245072   27.27059500
O     -5.48421196   10.50366573   27.94730525
H     -1.63721272    4.66060889   25.99987040
H     -0.50833704    4.23812874   25.08338406
O     -0.68487064    4.46376188   26.05472400
H      4.04330149   -1.59182719   19.87375656
H     -2.06210397    2.30738797   17.41030947
O     -1.60046082    3.03022027   17.85816367
H      8.51878147    8.02590862   35.77131828
H      8.32936436    6.85277889   36.88023420
O      8.69791077    7.75175762   36.69933721
H      2.01501980    6.46283328    9.85563198
H      1.39656654    7.62402498   10.82579425
O      1.65111260    6.64640867   10.82558720
H      0.82478224    1.66215150   15.14098184
H      0.01459708    1.34566060   13.84854736
O      0.11118236    1.12879369   14.83172090
H      5.64677645    7.41684101   32.88743414
H      5.74023057    6.96794385   34.40587253
O      6.28138250    7.33038106   33.67266359
H      0.57989510    1.87325843   28.76761994
H      1.95167334    2.27256435   27.97013847
O      1.51597163    1.62628084   28.55260129
H      3.93768316    9.23719670   12.48632326
H      2.59923424    8.84456872   13.44978265
O      3.08904929    9.58667676   12.88219843
H     -0.96690076    0.63623910   52.43584694
H      0.39775652    0.68166529   53.06159407
O     -0.31811783    1.32546254   52.65719548
H      3.00508077    6.06070158   38.46334599
H      1.90296831    7.13142061   38.78033406
O      2.74464357    7.01006484   38.40304733
H      9.15642322    8.43218565   15.96605183
H      0.97303842    9.78887013   13.17184974
O      8.48341948    7.84923159   15.37534047
H      3.95762994    6.72326749    5.90036308
H      5.19073839    7.50277018    5.91550721
O      4.93181050    6.58536953    6.04778848
H      5.92977486    0.47452439   11.29924844
H      6.24982428    1.55239546   12.36088199
O      6.64675604    0.76972331   11.89535245
H      7.74709806    1.10550817   22.00691341
H      6.95964425    1.43368325   20.80856783
O      7.86080839    1.10762903   21.06345667
H      4.00178148    7.26946992   23.27886831
H      3.30687946    8.20298650   24.27829756
O      3.12139130    7.42073126   23.70763154
H     -0.83336243    3.35258430   14.56835210
H     -0.31484716    4.62874860   15.37992772
O     -0.51701836    4.28389173   14.46744805
H     11.80426612    2.13674386   -0.03707279
H     10.63300955    1.38287134    0.57444960
O     11.26960080    2.11944170    0.79951214
H     -0.03456756    3.02105505   36.12858532
H     -0.91412867    1.76024127   36.52375621
O     -0.92127949    2.70124606   36.10895821
H      4.09986320   11.63024468   19.37240080
H      4.55114058   11.11849967   17.94882046
O      4.71844931   11.00974895   18.87027372
H     12.21203706    2.56372554   26.68385953
H     11.64498021    1.08781291   27.10035326
O     11.43288410    2.08700997   27.07607790
H      4.35085775    8.13387487   27.32954438
H      7.75868958    3.83344040   16.65391076
O      5.20269314    8.57670746   27.09637671
H      6.93410553    4.20375481   13.74306674
H      7.57778726    4.91363944   12.56433243
O      6.74856053    4.57942808   12.90088190
H      4.18365979    4.07708717   11.48436611
H      3.58082655    2.88376157   12.44729833
O      3.51200660    3.84714301   12.33289561
H      8.28958712    2.21458850   17.73901011
H      8.62020296    3.48559258   18.50301846
O      7.91151907    3.06701153   17.99271886
H     -1.65119169    1.92288286   20.60714021
H     -1.17540399    2.95895784   19.59076426
O     -1.04018086    2.66065169   20.50146443
H     -2.66683352   10.11473050   54.07640257
H     -4.06461459    9.67999932   54.73739291
O     -3.57949249    9.74396660   53.90383790
H      6.72373484    7.54199023   26.72180734
H      6.70181529    6.01787308   26.69139038
O      7.29212711    6.74363003   26.62298897
H      0.93018398    7.52700360   19.81903981
H      1.03922216    6.74894612   18.47012238
O      1.55392600    7.29848942   19.13807537
H      8.67907739    1.65790507   52.93536236
H      7.84459533    2.05498807   54.19887943
O      8.38866184    1.34498301   53.81187745
H      6.84259966   10.20455166   36.17377560
H      7.33058942    9.19706905   37.32902415
O      6.69918832    9.97699901   37.12064087
H      1.20329749    3.82047212   29.66467659
H      0.61887621    4.54294555   28.45380110
O      1.18754949    4.70484009   29.19805600
H     -5.81389622    7.34124509   18.89450058
H     -3.48873488   11.51161922   20.90924832
O     -3.27097355   10.57668607   20.68047186
H     -2.24802050   10.03590204   18.09610903
H     -0.80774917    9.96767232   18.88264691
O     -1.61374242   10.49242884   18.63094071
H      6.23797993    3.47830413   22.13311721
H      5.09162093    4.21063609   22.74920765
O      5.91715658    3.82955176   22.96005263
H      7.60799393    1.09646953   24.27910224
H      8.67180933    2.19991065   24.09417879
O      8.30018151    1.38533142   23.67145565
H      0.26323806    7.61102398   31.90357167
H      0.58645838    8.49806543   30.68859224
O      0.81495648    8.34605275   31.70213457
H      8.43327469    6.79172851   29.61059712
H      7.85852959    5.63226836   30.33391099
O      8.75443749    5.91263654   29.87898097
H      4.34744065    6.04731547   13.95184478
H      3.70870678    6.73668676   12.70838797
O      4.39735569    6.90311269   13.35562609
H     10.29444799    0.58787204   23.82161223
H     11.59431343    1.60091627   23.66847818
O     11.30727009    0.60558918   23.81700831
H      2.47770488    8.13510184   32.49488371
H      3.78863487    7.22445092   32.49416779
O      3.26991627    7.85154700   33.00378992
H      3.40826644    5.94197749   25.38328536
H      3.35494839    4.96740432   24.24608649
O      3.61897956    4.96419889   25.18352018
H     -3.06876970    7.16641301   24.17775311
H     -3.02111360    6.63936248   22.68081979
O     -3.28562118    6.38435098   23.60665325
H      5.63048018   11.36622187   28.78047133
H      5.46036008   10.68915093   27.34221026
O      5.57728311   11.58801713   27.79795742
H     -1.78949217    3.72532430   37.05808439
H     -1.84173018    5.09485886   37.92820700
O     -2.41997032    4.39016849   37.57988305
H      1.34039316   11.31299198   20.67826238
H      2.36585399   10.29612798   20.68157532
O      1.39477255   10.37052516   20.52555902
H      3.72483266    0.40061978   28.75266418
H      4.66701848    0.64540985   29.88090110
O      4.66372408    0.60509311   28.89016721
H      2.45945627    3.99377117   12.08137296
H     -1.31960494    5.83148240   11.51898123
O      1.02680113    4.35632121   12.14049473
H      4.84208203    4.96206572   17.60539059
H      5.66985639    6.39095275   17.32467216
O      4.98904731    5.73308729   16.97659084
H      3.08938210    8.57501023   19.42154809
H      4.12942197    9.79165420   19.68408635
O      3.67001483    8.99265377   20.16475914
H      4.58402379   10.67798151   24.90794095
H      3.07595796   10.20989955   25.15248424
O      4.01215322    9.97626908   25.07062793
H     -1.93661348    4.93335635   12.68818873
H     -5.60499850    8.27334247   14.61517493
O     -1.93664413    5.80174285   12.32461066
H      5.57836442    4.66970174   31.52913890
H      4.05108589    4.64877269   31.28868863
O      4.75141189    4.93145432   31.90307417
H     -0.37532502    4.60856057   32.57661599
H      1.06525863    4.31124107   32.65537535
O      0.51342428    5.08501397   32.58452854
H      4.38167841    1.03677459   31.81160934
H      5.90948518    0.63701348   31.76463327
O      4.97654409    0.34425448   31.55248141
H     -0.56287302    5.61156098   29.80112870
H     -1.42738828    6.51138452   29.10443222
O     -1.51989596    5.82324234   29.72150809
H     14.81296702    5.08030288   11.48194981
H      8.27274768    6.91696212   20.47437392
O      8.61159873    7.05239212   19.55325991
H     -0.77393875    3.89538454   22.64413280
H     -0.13029327    2.66692642   23.19956145
O     -0.76027915    3.31158642   23.45189061
H      7.45676315    3.75785984   30.62169311
H      6.41667045    3.65425497   29.47471045
O      6.61511550    4.14576802   30.44379525
H     -4.24690035   12.30681065   30.96678023
H     -4.06422017   11.05805887   31.65568247
O     -4.46373037   11.39692190   30.85745192
H      9.96050878    4.51134654   20.04530085
H      9.12662971    5.29603107   19.02020695
O      9.72982590    4.48302882   19.10579283
H      5.11575468    4.54153781    4.50178035
H      3.77643114    3.83421941    5.17923566
O      4.51684380    3.74538322    4.43626428
H      5.82344011   11.41025318   40.86593621
H      6.99685951   11.57970664   41.79415393
O      6.77350586   11.14663321   41.00774701
H      0.10553381    2.45265642   11.96644193
H     -1.17749791    1.40573635   12.09503427
O     -0.18280688    1.50732377   12.28462683
H      8.24966481    9.47749416   29.02639054
H      8.55958962    8.73101257   30.43940122
O      8.13217416    8.63092388   29.59840464
H      5.95125713    2.13666886   16.77450346
H      5.42435830    0.86305210   16.01210331
O      5.27151138    1.84945529   16.10618148
H     -4.67969532   10.03028489   38.75651651
H     -5.56353871   10.08429719   39.97803500
O     -4.77271621    9.65651606   39.64642436
H     -3.98586087    6.60124033   31.24860364
H     -2.44312779    6.71568145   31.11306991
O     -3.17564704    6.86874516   31.77371969
H     10.37468206    3.49649270   53.80874047
H     10.23899137    4.83252830   53.20217787
O      9.92223732    3.93530855   53.12263681
H      1.21263106    9.52147352   28.98503282
H     -0.10794890    9.01219182   28.30009203
O      0.59366156    8.71875902   28.97456279
H     -0.71171877    1.28134843   30.39478080
H     -1.43067270    2.61015171   30.21031374
O     -0.56243954    2.23878257   30.38100299
H      3.18537456   11.20405135   14.08029083
H      3.03293523   12.68495103   13.76421558
O      3.01311309   12.05481422   14.48885415
H      6.98118684    4.76761075   15.61796719
H     10.98156157    9.97345481   24.00891711
O      7.72098503    4.19569802   15.63980391
H     10.91901960    0.40880297   21.84758841
H      9.72698099    1.30433651   21.31191257
O     10.46380282    0.76596634   20.99440149
H      6.77339163    2.05200708   33.39169261
H      7.10878169    2.94788332   34.55353925
O      6.41517264    2.24321591   34.33987145
H     -3.56583943    6.84447905   27.80885395
H     -3.52592994    8.27226763   28.48650021
O     -3.11940213    7.69657516   27.76998531
H     -3.69256290   10.51818417   34.00085059
H     -2.79996722   11.57103218   34.67256799
O     -3.68058065   11.47530876   34.29072888
H      3.34077679    5.84384105   15.87027100
H      1.75878538    5.59038749   16.20509952
O      2.48847950    5.62826694   15.50226880
H      6.36059561    3.28861625   27.19528660
H      5.56049237    2.30085307   28.13039758
O      6.46098269    2.67051197   28.06351352
H      0.94594873   10.04204998   24.64853142
H      1.20585374   10.49577429   26.15841860
O      1.49073972    9.83728543   25.46285707
H     -1.66345110    8.60229748   25.42097927
H     -2.81728264    8.34893469   26.49949905
O     -2.62249778    8.46967885   25.48679061
H      4.98957435    4.63527837    9.62732341
H      5.92269629    4.80426441   11.00531519
O      5.16914643    4.28267181   10.63069490
H      0.25404978    9.02767925   21.21851275
H     -0.08317844    7.86959035   22.04141515
O     -0.22865079    8.16499587   21.13712473
H     10.10195863    2.56355445   30.91238492
H     10.33273006    2.65148498   32.44259471
O      9.63448297    2.57380301   31.79871239
H      5.33677057    4.23575267   25.63551950
H      6.74179570    4.02777554   25.15698981
O      6.30228093    4.09625798   25.95056831
H      7.26776239   11.15879637   12.55087786
H      7.28037469   11.17203898   11.15203086
O      6.93409309   10.57522709   11.82948909
H      8.75773520    4.77785975   34.70598616
H      7.52674079    5.43921750   33.88774433
O      7.70205500    4.91419339   34.74236842
H     -0.54927584    5.77713836   17.36176983
H      0.02598035    6.89729910   16.38926435
O      0.20543022    6.02154262   16.78368308
H     12.71731541    2.07124232   33.10184845
H     12.13475618    2.71687452   34.32135770
O     11.89978466    2.45141545   33.41858281
