  672
# Step    60000,  Time   60000.0000 fs
H     -3.01493548    9.78486734   40.59223761
H     11.51835823    2.59102046   41.04056486
H     -3.90078837    8.91553995   13.21596878
H     10.86043177    1.23881629   13.33687486
O      1.67317642    3.85323424   51.87068301
O      1.02666776    6.22627460   52.62030991
O      4.29535896    4.13739589   52.14518830
O      2.17415769    8.51228475   52.22078256
O      2.97110705    2.73939425   53.91300000
O      4.76287599    7.75193460   52.13921901
O      6.37751471    5.69908831   52.34881662
O      6.15176182    3.65914513    0.03981873
O     -0.10148857    4.38257908   53.86645536
O      6.64622753    7.66764914    0.19505223
O      3.82889295    9.31460575    0.02500000
O      0.29723483    8.27136362    0.14121091
O      4.28718660    3.50371687    1.95983998
O      5.63145215    5.73795457    1.76879096
O      4.88918995    8.25430323    2.17325567
O      1.69218061    4.12151012    1.86784089
O      2.26630167    7.98877329    1.98525267
O      0.09400945    6.12551956    1.90120978
O      3.13749882    1.69744242   51.70111964
O     -0.76174356    4.52146517   51.26886052
O     -0.36133136    8.19540807   51.62297706
O      3.86057213   10.19763408   51.36206422
O      7.26937553    8.17658196   51.62430107
O      6.48143302    3.08271937   51.40405586
O      6.84706561    3.41674329    2.56430790
O      2.58856590    1.66787390    2.35711089
O      7.25834680    7.60153577    2.85603920
O      3.38109793   10.41000454    2.28707703
O     -0.31655774    8.44900668    2.72331492
O     -0.85920959    3.82768315    2.42232161
O      2.39287799    0.88774386   49.25781452
O      0.35387073    2.59874825   49.60490165
O      4.76506114    1.64773013   49.52475841
O     -1.43990507    4.42093798   48.71907197
O     -1.58352411    6.72410406   49.89985458
O     -0.24336847    9.00811679   49.03440973
O      1.95799946   10.65179250   49.49350072
O      4.54630480   11.21908460   49.02682903
O      7.27033502    2.21812316   48.90641014
O      6.53977057    9.43634850   49.14540624
O      8.38821857    7.51298208   49.38391309
O      7.45748843    4.94126926   49.66477573
O      6.19911905    2.82670023    5.00998972
O      8.05333342    4.50949988    4.78461105
O      4.14408051    1.77068875    4.37036340
O      8.30957164    7.30979180    5.26126883
O      1.60165639    0.72523227    4.62516512
O      6.44074779    8.93977825    5.02684308
O      4.35136105   10.38115719    4.82035879
O      1.82085106   11.24596386    4.27433642
O     -0.07183078    9.69322290    5.19891318
O     -0.66291788    2.00973280    4.65365948
O     -0.90554515    7.25732765    5.08576466
O     -0.91674676    4.51515026    4.99214600
O     -2.95654319   11.43550453   50.73862297
O     11.67559899    2.28268967   50.49332591
O     -2.50296971    9.02747023   50.56965003
O      9.80168467    0.52120262   50.81801355
O     -5.03745983    9.86326171   50.41441294
O      9.07705625    3.02228152   50.52240354
O      8.48756581    1.98362982    3.81206175
O     -3.12833289   11.54015766    3.45573830
O     -5.00790559    9.51625278    3.74088425
O     10.61810735    0.43889274    3.60175026
O     -2.47691832    9.00896676    4.05565505
O     10.87561932    3.11898393    3.63047531
O     13.69953306    0.07261537   48.78359646
O     -0.28257116   11.82176334   48.93956770
O     10.01574716    5.64772283   48.90744984
O      6.23836959    0.17880185    5.17130739
O      6.49109787   11.83113271    5.50901549
O     10.44392671    5.98774204    4.63351594
O      1.39640077    2.00670082   47.28817524
O     -1.76550949    6.37198373   47.18094178
O      5.58677169    1.32899375   46.96162621
O      1.12284018   10.39759516   47.07085779
O      5.92562806   10.63756470   46.86087339
O      7.68413098    5.93767865   47.24290910
O      5.05011302    1.76152270    6.99188131
O      8.96199731    5.29500359    6.94453859
O      5.48922635   10.12029104    7.16118511
O      0.56632387    1.39700479    7.05638918
O      1.39799660   11.07373978    6.95482797
O     -1.77856181    5.85252518    6.95390739
O     -3.17476129   10.51619487   48.30997513
O     10.01499156    1.75404736   48.37670270
O     -3.64640594   10.40441285    5.83989801
O     10.05664049    1.86260035    5.91349195
O      0.05235932    0.39191425   45.52126536
O      0.51272745   12.09187798   45.21199673
O      9.83926809    6.48714402   45.68031090
O      6.34736512    0.21989044    8.56646038
O      6.76874474   11.80874108    8.77104028
O     -3.30935499    6.52755332    8.95367816
O      2.36409318    1.74620359   44.83697490
O      0.17533063    2.99694699   45.07232485
O      4.86031280    1.00326819   44.38505597
O     -1.84721514    4.83610847   44.92936320
O     -1.47666289    7.33374161   44.82169523
O      0.30477446    9.25079651   44.88294733
O      6.80060737    2.49751679   44.94835138
O      2.56763962   10.55694284   44.69607629
O      5.15124688   11.30471482   44.32003421
O      7.28669640   10.12592208   44.56585041
O      7.80999634    4.93548535   44.84094593
O      7.41195047    7.63479034   44.94328768
O      6.44748379    2.82518049    9.10804682
O      4.22720730    1.46147221    9.50196722
O      8.51059523    4.59779120    9.36076421
O      8.11408003    7.10661410    8.58328180
O      6.71018682    9.23554211    9.36690080
O      1.73139381    1.28411515    9.45309563
O      4.54416263   10.55895397    9.69330539
O      2.02362107   11.44548174    9.44693267
O      0.20445432    9.84168049    9.18528997
O     -0.67255811    2.13792924    9.47579930
O     -0.88795721    7.41252001    8.93096579
O     -1.31024824    4.85092732    9.42652337
O     -3.51260225   11.71449176   46.16355300
O     11.75892067    2.46018521   46.46066686
O     -1.91587424    9.70123379   46.20580527
O     10.18281798    0.49715631   45.97619089
O      9.16881822    2.92695060   46.15412140
O     -4.62354531    9.35764070   46.33663011
O      8.86269317    2.10277130    8.35840107
O     -3.48172244   11.80030885    7.91096494
O     -4.84616904    9.49788582    7.83219806
O     10.60998904    0.40123944    8.02571930
O     -2.15552648    9.54100167    7.86727786
O     11.13906415    3.13292523    7.99657660
O     -3.68887082   11.67211652   43.43929190
O     11.61127040    2.50584659   43.78408247
O     -1.73472583    9.81368332   43.41454879
O      9.88702459    0.57826162   43.17590863
O      8.91132845    2.99009115   43.47353620
O     -4.27454465    9.04860630   43.72886839
O      8.38947827    2.28993599   10.92448349
O     -3.71603955   11.38240955   10.60237732
O     -4.60931885    8.79532043   10.38176087
O     10.46701459    0.52650325   10.90475686
O     -1.96348626    9.22189946   10.50506809
O     11.00579948    3.12908483   10.73013478
O     -3.50593125   10.25216653   41.30462009
O     10.59849570    2.25635878   41.32973511
O     -3.47533441    9.64614072   12.72261196
O     10.25853984    2.06183501   13.08530407
Si     3.04010536    3.11662074   52.39792969
Si     0.40981443    4.72262983   52.35077599
Si     0.78956012    7.85263796   52.62924345
Si     3.69957640    8.96309987   52.43057888
Si     6.34065624    7.27273131   52.62908244
Si     5.88187335    4.13489843   52.48419572
Si     5.76017808    4.07096851    1.59610895
Si     2.85041182    3.02545047    1.51925164
Si     6.11202724    7.28091530    1.67440623
Si     3.52744316    8.98464014    1.61489531
Si     0.67860495    7.70240656    1.62252508
Si     0.16355561    4.54057720    1.39172663
Si     3.59261250    0.86735837   50.40494426
Si    -1.00462808    3.39573817   50.02413124
Si    -1.12562343    8.25741681   50.26106881
Si     3.41123535   11.19706075   50.19199813
Si     7.61509228    8.70382747   50.10275968
Si     7.52366208    3.32436207   50.13300612
Si     7.40504288    3.20619203    4.05261287
Si     2.90629345    0.92283353    3.68222019
Si     7.69122722    8.36710740    4.17720048
Si     3.36282307   11.11781134    3.83275180
Si    -0.93864402    8.64844318    4.23423299
Si    -1.30350401    3.33785307    3.89049952
Si     0.99927129    1.39855148   48.75040109
Si    -2.17284133    5.90871523   48.68558747
Si     5.93653836    1.21004153   48.52551740
Si     0.58883783   10.46527780   48.62883188
Si     6.11280715   10.92294470   48.50655202
Si     8.43590501    5.99973299   48.75673695
Si     5.34349345    1.55364212    5.37694242
Si     8.89976238    5.73548596    5.38970695
Si     5.80661187   10.37850968    5.57794012
Si     0.25011688    0.97533284    5.53067751
Si     0.66429162   11.14299029    5.47884637
Si    -1.79676587    5.90979116    5.38415029
Si    -3.46180429   10.12119347   49.92315752
Si    10.14308656    1.84513275   50.01967691
Si    -3.64256996   10.19208888    4.21763707
Si    10.00902156    1.84986347    4.25910190
Si     0.98903474    1.72571328   45.74077933
Si    -2.24935084    6.26935770   45.64953613
Si     6.03839477    1.15380922   45.41309406
Si     1.09109459   10.61358381   45.41042707
Si     6.38177392   11.14751579   45.44285123
Si     8.15239049    6.24863962   45.64465871
Si     5.56558974    1.52005365    8.53667659
Si     9.06664687    5.82953115    8.45613634
Si     5.89279345   10.48328417    8.68468711
Si     0.34310068    1.17331602    8.63774179
Si     0.83013795   11.12713420    8.46998390
Si    -1.74252604    6.12651749    8.59313133
Si    -3.34473452   10.20032574   46.74848615
Si    10.16906184    1.88186648   46.75053222
Si    -3.50946327   10.23472327    7.40958814
Si    10.19686147    1.86204960    7.55681399
Si     3.34706144    0.46872173   44.74907339
Si    -1.44169114    3.22795988   45.10558063
Si    -1.32848347    8.99377234   44.78280305
Si     3.67173480   11.82227144   44.47012916
Si     8.23592658    3.31796570   44.91372844
Si     8.37851120    9.04317715   44.90097668
Si     7.98922977    3.01250087    9.49677084
Si     3.00831347    0.30508873    9.40878638
Si     8.22448871    8.65618515    9.05300989
Si     3.55897344   11.81023206    9.51715197
Si    -1.19784259    8.95982228    9.10561793
Si    -1.77423647    3.29547033    9.43016765
Si    -3.29088253   10.16067367   42.97211448
Si    10.31186977    2.14049667   42.92391483
Si    -3.44988695    9.72594753   11.06136010
Si     9.94823426    2.00553316   11.45159322
H     -0.33650822    2.81350399   40.21577340
H     -1.02400572    4.13666646   40.54494280
O     -1.26210408    3.25055641   40.11659949
H      2.49155316    1.88417338   22.27143224
H      2.66702613    0.56902376   21.46067650
O      3.09655173    1.47180860   21.62646652
H     10.25423069    4.69589934    1.47152234
H     10.17092193    6.07074566    2.32428154
O      9.74055586    5.57902157    1.56487311
H     -2.14023455    8.76347871   33.09649393
H     -2.98107514   10.00494222   33.43407704
O     -2.16276635    9.60071443   33.66557339
H      6.80183940   -0.21464347   41.23048151
H      5.63256913    0.57008529   42.03165144
O      5.95735663    0.30892337   41.16395570
H     -2.19341590    3.99649301   31.00662622
H     -1.59125042    2.99057228   29.96641100
O     -1.40202259    3.87367234   30.45997018
H      2.55241789    4.90164904   48.65069418
H      1.45839898    4.49395757   47.65306225
O      2.43690349    4.32409789   47.86250907
H      8.22952082    0.40921650   26.93856268
H      9.26091893    0.72404850   25.71399597
O      8.50616112    1.08028653   26.28169226
H      2.74203997    1.53574499   12.85994949
H      3.21756991    0.05276065   13.12508105
O      3.41988275    1.00652475   13.30409630
H      2.58023981    5.93557891   29.93586172
H      2.08616459    6.84305992   31.02323097
O      2.51909453    6.90441981   30.14532288
H      9.51313182    4.76664531   37.68663958
H     11.06118450    4.81861322   37.14249440
O     10.17435492    5.25562620   37.19463459
H     -1.54996112    4.70167406   23.45367350
H     -1.54369812    5.75854295   24.51767524
O     -1.04509383    5.47993332   23.65628817
H      7.22076488    5.88155145   31.79248007
H      5.74463520    5.15600923   31.88611795
O      6.67594228    5.31292925   32.30665516
H      9.19568188    1.15220234   53.35316129
H      8.15292807    2.13536121   53.78526286
O      8.24410107    1.16740390   53.66521580
H      5.57096274    3.69117999   23.24096999
H      6.08023038    3.21877472   24.63497608
O      6.43767171    3.46100645   23.76301232
H      4.48306056    6.89560858   11.59876309
H      3.45031831    5.75072800   11.85755495
O      4.12411480    6.05700102   11.15637713
H      7.54763955   12.72575285   51.86637173
H      7.71673259   11.76957578   52.98340820
O      7.06159924   12.00831742   52.33513994
H      6.05656886    0.94586099   34.00426061
H      5.01411203    1.88867002   33.44967939
O      5.78493497    1.87307255   33.94648808
H      0.88330680    2.84091692   12.23253186
H      1.92404328    2.80247905   11.08737952
O      1.84183997    2.84077046   12.04549884
H      6.13894896    3.30658964   12.17658975
H      5.78775952    4.76183924   11.43435559
O      6.43728387    4.06107131   11.57199922
H      9.22192756    8.11600557   34.89064666
H      8.50172314    6.68978315   34.70876982
O      8.60801978    7.62637066   34.26479428
H      0.72567777    6.88129406   37.32073094
H     -0.74784633    7.17733273   36.98603051
O     -0.15180381    6.49858395   37.42800964
H      7.51947419    1.99649353   35.47905853
H      8.96964028    1.99894402   35.92325288
O      8.08248336    1.69320483   36.25484975
H     -1.50465045    3.18863249   14.01308267
H     -0.92525430    1.85813028   13.81495219
O     -0.64701127    2.73738419   13.89705974
H     -0.49839346    9.39333682   23.58177777
H     -0.88104505    7.85500652   23.60041164
O     -0.10293308    8.46147791   23.58291075
H      8.73117578   10.36753698   25.43743080
H      7.56851191   11.28400014   26.01974582
O      7.75344348   10.61246561   25.34722221
H      3.91344551    6.15029493   43.38085710
H      4.14472358    5.02272418   44.57090206
O      3.94296163    5.14081330   43.55938497
H      1.16499838    3.77134403   28.76623670
H      1.46794618    3.36282535   30.21416256
O      1.74259145    3.91973207   29.49170769
H     11.94395638    2.21964326   35.86409218
H     12.02633351    0.75807478   36.28555882
O     11.42957137    1.51939148   36.32896151
H     -3.34952435    8.22392524   29.01664391
H     -1.94850588    9.01714567   28.72917150
O     -2.85714449    8.95747399   28.54741126
H     11.46469845    2.55698650   21.89762857
H     10.05885175    2.87318601   22.30239761
O     10.84255859    2.28821490   22.59090051
H      0.39164613    6.97073701   33.82715929
H      0.54594711    5.55873178   34.20920997
O     -0.11858833    6.28769870   34.25255564
H      3.65342639    9.50732281   11.49773227
H      2.78129953    9.09256890   12.89868887
O      3.71253072    9.16307510   12.43621369
H      4.15826903    1.82183535   38.81471669
H      5.47348777    2.01897277   38.20935956
O      4.47779813    2.03627658   37.91879391
H     -3.26552632   12.14311679   37.14412751
H     -3.34242021   10.71872493   37.63946738
O     -3.87966549   11.36612330   37.17102540
H     -2.34386461    5.41269193   14.70711497
H     -3.03791949    5.03252125   13.21054408
O     -2.30926813    4.83712612   13.93920204
H      6.00710358    5.78167167   37.46121401
H      6.86114142    5.42848271   38.76812920
O      6.30773447    6.13536908   38.36200886
H      5.95437927   11.23183671   40.60750363
H      6.80803631   11.87134062   41.73699810
O      6.81143758   11.29076835   40.98346854
H     -4.20628060   11.32222638    0.48224693
H     -4.68683175    9.97695568    0.51644478
O     -5.05293868   10.86577036    0.61003648
H      8.42277166    4.11613182   31.64751214
H      9.51544024    4.38432836   32.65615396
O      9.38166311    3.89613658   31.73965697
H     -2.23145395    5.90720749   40.02770903
H     -3.26593717    6.10126702   38.81363394
O     -2.84898464    6.50869197   39.67440050
H     11.45108110    0.62078815   29.15945342
H     11.92757477    0.10261324   27.87847493
O     12.29097752    0.60959818   28.59003914
H      5.29158702    5.88087373   27.70745069
H      6.49122419    5.55713763   28.66783184
O      5.77774313    6.21122751   28.52332599
H      5.55825535    8.04030595   47.91318733
H      5.10403260    6.52443091   47.67593614
O      5.27022675    7.29200973   48.33449997
H      4.08330062    6.01307452   32.55172445
H      4.14231756    5.71317267   31.03044719
O      4.09467928    5.29368119   31.88867535
H     -0.29923434    6.35485565   41.38382290
H      0.01029291    5.03778726   42.06390052
O     -0.81086381    5.51780626   41.70158176
H      8.10944194    3.73874790   39.69863354
H      9.09341742    4.96736004   40.24116492
O      8.57038330    4.64736315   39.51347033
H     -0.10762977    2.41458153   19.95934137
H      0.28895235    3.42174180   18.83147912
O      0.45941057    3.19660517   19.87472412
H      2.62204857    6.25549803   26.08716560
H      1.15105760    6.88392639   26.21317629
O      1.96089510    6.67564256   26.64912369
H     -2.51235829    4.09652377   33.88906093
H     -1.41773405    3.89084817   32.73377701
O     -1.55978975    3.72720566   33.68365783
H      4.48542037    5.35222472   20.92772598
H      5.39808780    4.29741880   20.34510697
O      5.34862561    4.95277738   21.12875353
H      4.65895342    0.88492099   21.94752166
H      6.14017641    0.79446196   21.54092633
O      5.51561338    0.35052888   22.14668887
H      4.61679365    6.89964920   34.75030555
H      5.05135963    8.28480501   33.98782833
O      4.33176471    7.56081264   34.06112463
H     -3.25426511    7.84172172   16.34972230
H     -2.29954385    8.22503710   15.32403044
O     -2.45246479    7.52838100   15.95526930
H     13.37627065    1.61164151   25.88438241
H     12.20417148    0.73730477   25.20700489
O     12.52073709    1.65145165   25.25524246
H     -6.11609946   12.74265342   22.76931163
H     -5.96313053   11.41319812   23.76663229
O     -5.97237507   11.73637716   22.87526207
H      2.15903546    9.24941769   32.82743126
H      2.94582259    7.89584561   33.42428123
O      2.20472300    8.27119415   32.78216059
H     10.77561196    1.34400544   37.98144137
H     10.26081169    1.48592732   39.58205435
O     10.32725512    0.85226400   38.76360435
H      9.53934261    6.68240477   31.20231931
H      8.99063627    7.20478330   32.55207132
O      8.76116669    7.10431680   31.62060825
H      7.86441855    1.59408512   38.55243507
H      6.88943229    1.91204233   39.87917398
O      7.30683795    2.21686764   39.05928202
H      1.78028940   10.09170698   41.38277886
H      2.04037266   11.51551323   42.08703243
O      1.33684767   11.03735075   41.60111080
H      4.55739911    1.82210484   26.51907289
H      5.70554617    1.08960400   25.77423634
O      5.39348906    2.00830354   26.03150312
H      0.73757857    8.38648684   13.96086918
H      1.29718448    7.30157156   13.01580600
O      1.54683172    8.02954295   13.60960283
H      8.55062796    5.21392521   11.71997543
H      9.05463802    6.37258632   12.39840868
O      9.43787274    5.50242579   12.02367322
H      5.82275939    4.97833466   35.62436126
H      4.39417020    4.76180312   36.30395059
O      5.03648944    5.49181130   35.92441927
H      5.85661312    7.53810124   40.62743564
H      6.67935324    8.66775355   41.25227058
O      6.35384356    7.72692979   41.40964586
H      3.09738872   -0.17739958   26.62727936
H      3.43077128    0.41268530   28.15650217
O      3.23389019    0.63373816   27.18450105
H     10.02868152    4.13274174   53.19935444
H     10.51651203    2.64880476   53.63289085
O      9.95936249    3.41512452   53.88599812
H      3.02409852    8.70002965   36.98798339
H      3.64556096    7.40072879   37.53120328
O      2.77557466    7.89607541   37.60845444
H      0.00827237   10.40771185   27.20572162
H     -0.91382486   11.35168539   28.06825766
O     -0.87216044   10.43518874   27.71844588
H      4.54946362    4.27181231   41.90315246
H      4.68170174    4.44756561   40.37677800
O      5.04063785    3.98393133   41.07355295
H      1.44034260    9.28865482   25.06590354
H      2.61402057   10.16432157   25.76803603
O      1.66292768    9.98257558   25.75626691
H      9.18498224    6.49284393   41.79096765
H     10.64733796    5.89763685   41.54464723
O      9.91200371    5.90804134   42.12149453
H      8.01628757    8.66531301   13.81560953
H      8.59557979    7.64456884   14.88756149
O      8.47926262    7.79000220   13.88923779
H      2.10983702   11.84981703   13.08602463
H      0.98215849   12.64032111   12.46694138
O      1.43022684   11.79399309   12.44956683
H      5.29338177    1.00937960   53.88580752
H      6.45774099    0.27544425   53.20327930
O      5.45771506    0.22582197   53.21282030
H     -0.53757907    5.67386124   30.37231059
H     -0.35836894    7.17729879   29.75050253
O     -1.01648867    6.57829485   30.27488123
H     -3.16257114    7.36248346   25.91916354
H     -1.98300636    7.39417206   26.89718626
O     -2.41066914    6.80713059   26.26506937
H      6.65434696    1.65218355   28.67534126
H      7.56921831    0.86074576   29.59405299
O      6.82631597    0.77415405   28.96636650
H     -1.67182372    6.54906984   33.16262726
H     -1.90210537    7.01998149   31.66082958
O     -2.20253374    7.12692973   32.55101575
H      2.35398677    4.16500750    6.08381876
H      0.87505674    3.85070308    5.66809801
O      1.79997375    3.75903582    5.43738780
H      6.65696191    3.35765618   34.34721533
H      6.96286308    4.53834960   33.65450202
O      7.32255881    4.09268046   34.44694387
H      1.68945061    7.64809556   40.16630923
H      0.52281660    7.06740076   39.46112519
O      1.10447237    6.83856527   40.20150206
H      4.28984154    0.91507616   40.46381407
H      4.30698182    2.43939049   40.80676469
O      3.67506421    1.69882561   40.63254993
H      9.54489763    6.69953953   54.24431720
H      8.89678827    7.30825943   52.84661736
O      9.58755554    6.72249926   53.24278102
H      4.11619649    4.17688892    8.83743514
H      3.29138024    4.96189240    9.75157539
O      3.19387950    4.44157084    8.95526181
H      4.60997931    9.81729598   25.90821806
H      4.26677555   10.67979870   24.57374383
O      4.14754121   10.60320774   25.51706438
H      8.63065475    8.84720962   18.84553527
H      9.38115165    7.59410519   18.86263150
O      8.58697378    7.94249211   18.53686730
H     11.40839815    1.10995526   54.58588945
H     11.96709588    0.65478791   53.23685001
O     11.56808692    1.41522756   53.71533864
H      9.08785913    2.32072223   31.92974839
H      8.19536696    1.42552091   32.90939114
O      8.56869304    1.47994902   31.95626881
H      1.21710459    5.58100282   11.08025333
H     -0.08406276    6.08818058   11.67831316
O      0.83262889    6.20101892   11.75711951
H      1.87374907    5.21304791   22.54290893
H      2.27213901    5.34869002   23.83602973
O      2.13473171    4.63806168   23.21440752
H      7.03805832    9.07914128   33.96542587
H      5.94610022    9.55715411   32.81903308
O      6.14131225    9.48112779   33.82567990
H      7.99822891    8.37547698   29.83670026
H      7.02501123    8.93789038   28.71533802
O      7.40058036    9.10099646   29.62391674
H      3.59121368    9.38660067   40.58478805
H      3.52741715    8.62207905   41.90874672
O      2.94562813    8.86068735   41.12353049
H     -1.45052370   10.62374828   20.98988036
H     -1.75078040    9.19550694   21.09710365
O     -2.06596860    9.93940902   20.64285088
H      4.25750309   11.48595435   39.35851449
H      4.91473511    9.98019179   39.14601001
O      4.61803698   10.66406287   39.79608867
H      1.63185161    1.08547288   27.39636446
H      0.12130377    1.62478881   27.78529891
O      0.66433886    1.29274061   27.01847315
H      2.63469915    3.67046616   39.84688097
H      2.03719365    5.00532428   39.46851891
O      2.82388739    4.43033752   39.29442555
H      9.03102167    3.81992437   28.15651678
H      7.62957056    3.46892469   27.58365407
O      8.09163799    3.73573039   28.38600660
H      4.56747758    5.39483198   24.25733769
H      5.02908104    6.72543711   24.93024695
O      4.37446391    5.98774099   24.98238362
H      9.52690385    2.59226474   26.64031459
H     10.76083198    2.83115661   25.95482453
O     10.24227285    3.31674561   26.65653550
H     -1.37532356    9.15952654   35.47183894
H     -0.25801247    9.14972453   36.45349636
O     -1.14902321    8.72501048   36.33529802
H      6.60527745    9.26169226   37.87065871
H      5.53266511    8.14675254   37.98388972
O      5.75478451    8.92840354   37.42297208
H      3.74368742    4.82320574   46.98207806
H      5.22968617    4.50318551   46.87233897
O      4.63188737    5.29513983   46.71298808
H     -4.38681480   12.11437786   30.21127718
H     -3.44036145   10.98180033   29.87692172
O     -3.78020217   11.79529778   29.54028508
H      2.83759321    5.17391576   14.01189546
H      2.72052571    3.73394093   13.26281032
O      3.30799237    4.32714041   13.77067917
H      7.99593624   11.04428698   38.82128821
H      8.49738740   10.68926607   37.50073671
O      7.78411616   10.34797759   38.11952455
H     -3.40925500   10.71561205   15.83451277
H     -4.58504295   10.42458341   16.90078647
O     -4.06004185   10.03692886   16.15325881
H      8.93174185    4.27563991   34.45467156
H     10.06322118    4.69217942   35.38717187
O      9.85041624    4.69759017   34.37826246
H     -0.29295991    4.86064092   17.04643196
H     -0.13934085    3.52760994   16.48378512
O     -0.01542535    3.93357278   17.30698660
H      1.90842194    9.26127171   21.14621987
H      1.19589412    9.06468389   19.83601798
O      2.00583821    9.38007949   20.17585454
H      3.15998576    3.23438064   36.63407637
H      3.01642955    4.35842016   37.60179349
O      2.86357939    4.15933073   36.65474048
H     -0.59206804    4.81718765   37.38366642
H     -1.23235433    3.50844930   37.92342843
O     -1.13100393    4.01286860   37.05345846
H      3.55400207    2.81776512   18.56783678
H      3.71926054    2.49784767   20.09341187
O      4.17092162    2.89110344   19.30940272
H      7.18733499    2.31969466   18.68364938
H      8.33024512    1.38967282   19.40125136
O      7.82565407    2.27933090   19.42073976
H      8.01230162    8.77853420   27.03011957
H      7.59257951    7.28033084   26.76304709
O      7.26254076    8.12486063   27.06522420
H      5.11805317    7.66887049   42.65903587
H      4.78267169    8.68780816   43.84443729
O      4.42892197    8.09076740   43.18303507
H     -0.32848972    2.06090287   23.79838916
H      0.63777789    2.97358757   23.27338770
O      0.28359577    2.07999286   23.01057540
H     -0.03108549   10.95671501   25.20063640
H     -0.99889152   11.70641617   24.16176737
O     -0.99132000   11.11886161   24.97069846
H      1.68438787    1.37404774   40.95278652
H      0.39738357    0.82061698   40.45377607
O      1.00890804    1.55369060   40.35394264
H      2.36561239    2.71032287   32.75903257
H      3.65985248    2.99555087   31.82923945
O      3.09914115    2.25837070   32.25594406
H      4.28805772    5.86010457   49.46472960
H      3.70891422    4.92819078   50.53859213
O      3.49670072    5.67489289   49.95030470
H      5.06345125    9.09720115   14.77546422
H      5.00393531    9.24802741   13.31856258
O      5.65173848    9.38815954   14.04814230
H      5.75683812    8.86887615   23.69105062
H      6.66065266    8.74554061   25.05827013
O      5.80221448    8.51384740   24.55636171
H     -5.18381995    9.22216201   32.08698183
H     -5.02343266   10.79956612   31.95255292
O     -4.64123063    9.99086954   32.30189102
H      8.87589170    0.80771600   23.26750738
H      8.59934946    0.63341199   21.73986116
O      8.80575378    0.13848086   22.58907982
H      6.02806263    9.13695346   30.87630966
H      4.56087343    8.91361283   31.19890899
O      5.24816932    9.64453859   31.26029635
H     -2.17202835   10.44000300   -0.21038565
H     -2.40176943    8.93911165    0.26676194
O     -2.42702282    9.88837199    0.58260299
H      4.99079877    8.09525180   28.01292769
H      3.55551098    7.93729695   27.52663144
O      4.19871167    8.61835160   27.82324318
H      0.22025567    3.34628239   34.37515987
H      1.61497567    3.01758427   34.85413927
O      1.11316374    3.63332488   34.21535272
H      5.96278114   11.92697302   22.80358090
H      4.35401099   12.11463859   22.64238613
O      5.03400935   11.57555939   23.08748157
H     12.18329991   -0.76237027   13.91634695
H     12.03677548   -0.06519887   12.56337031
O     12.15895925    0.16533208   13.54664211
H      2.79314961   11.06812606   36.29549892
H      1.31811583   11.60111950   36.34160314
O      1.83801627   10.80292850   36.44249350
H      9.58636375    0.52347423   30.83170427
H     10.16147580   -0.68921400   30.02497028
O     10.03341453    0.27631420   30.00244483
H     -0.94379566    8.99903118   39.46509911
H     -2.30088291    8.07122293   39.44173412
O     -1.94354342    9.01753569   39.56232840
H      1.27835028   10.21515808   38.21382838
H      0.72962165   10.44921518   39.65142127
O      0.60906399    9.92995060   38.85660858
H      4.89659713    1.58372715   13.35469169
H      6.14434314    2.36355984   14.12759880
O      5.78593455    1.95703088   13.30124572
H      8.39342853    4.46664813   25.36508575
H      6.98908569    4.89478011   25.07868258
O      7.72771348    5.13750315   25.60015039
H      0.01173928   10.98659899   34.76868269
H     -0.67772473   10.84111259   33.44043428
O      0.08775636   11.30310375   33.86495600
H     -4.78079797   11.09712615   21.61493856
H     -3.56611368   10.58035506   20.71152853
O     -4.37658833   11.17304157   20.71751489
H     -2.88540268   10.25429533   25.54726415
H     -3.16839037    9.83844429   27.18306480
O     -3.54497837    9.93227428   26.22558744
H     -0.70844596    6.20534398   20.87796225
H      0.04441894    4.87365793   20.38709564
O      0.08136908    5.88646480   20.45540343
H      8.20419564    3.45982861   21.12151149
H      8.03732290    3.32851453   22.58256277
O      8.66877782    3.69170409   21.90366828
H     -0.51993495    1.03729939   32.10028232
H     -0.21667771    0.26082753   30.74769295
O      0.17223009    0.66702864   31.55291652
H      1.23449049    8.12343216   29.45100122
H      0.41105288    9.26418208   28.81333284
O      0.40416833    8.63449577   29.52607384
H      2.33706714    4.57790834   43.01480511
H      1.72698636    3.15382975   43.36368749
O      1.55769966    3.96567056   42.84430570
H      5.04817702   10.22835057   36.53917053
H      4.84814635   10.62894921   35.12725477
O      4.44102930   10.76881602   36.04467374
H      3.63842330   12.23030196   19.61674680
H      2.55356115   11.10761969   20.02270777
O      2.71248015   11.92261287   19.53813522
H     -3.44815424    5.77848680   28.52547350
H     -2.44057348    6.37898245   29.34912720
O     -3.42246044    6.30958065   29.31325443
