  674
# Step    60000,  Time   60000.0000 fs
Al     6.10989833   10.59103411    8.20293770
Al     3.53095383    0.53841757    9.52000555
H     -2.60149046    9.23630761   13.02503054
H     10.69563432    2.10619221   13.09527220
H     -3.05193949    8.76274136   40.96924609
H      9.68949431    2.96608339   41.03004131
O      6.84165471   12.11579286    8.50672592
O      6.81200010    9.26360577    9.05077353
O      1.98451472    1.23702807    9.84163997
O      5.97733800   10.43389445    6.50041712
O      4.62715076   10.50577882    9.08873386
O     -2.81963395   11.56243947   10.77737208
O      4.56436352    1.86223050    9.25196904
O     -4.88317507    9.98987121   10.43855949
O     -3.13049811   11.58992333    8.12874662
O     -4.56496428    9.29879200    7.80281256
O      1.16414973    1.73023530    7.20786334
O     -0.18207542    2.51510462    9.43167244
O     -0.02490988    0.44830875    5.07913872
O      8.83355807    7.39672625    9.45988781
O      2.13377109   11.14377165    9.73196577
O      6.71056572    0.38858140    8.60818361
O     -2.49181465    8.95781478   10.06936662
O      9.96721014    0.38351281    7.80826525
O      7.36724145   10.13791400    4.32687704
O      5.02831874   11.16438943    4.17939756
O      6.66058736    3.12620575    8.50072147
O      5.49513137    1.77248315    6.70009134
O     10.73166365    0.53767954   10.49380586
O     -3.30988843    9.64900353   12.53928758
O     -1.89941862    9.47925666    7.39831120
O     -0.19137432    9.98988102    9.28144776
O     -3.77400220   10.57929617    5.76117003
O      2.40193936    1.95263784    4.95435626
O      1.17784780   10.72876197    7.06502483
O     11.63958179    2.46599449    7.70350888
O      0.00419365    3.10367901    5.07507398
O      8.69979922    4.83386490    9.13413552
O      9.07187427    2.96529672    7.48540870
O     11.08519875    3.18502924   10.11772317
O      8.70921313    2.46002125   10.25488241
O     -0.92471631    7.44864783    8.68787429
O     -0.89905735    4.85561297    8.71570626
O     -3.12240006    6.02014773    8.09328903
O     -4.21831932    9.19224455    3.58579462
O      2.58077996   10.87913981    4.99896484
O      8.13711811    6.43832881    7.05065918
O     10.23814475    1.62457655    5.56410113
O     -0.12988809   12.00246113    5.13635947
O      4.82409837    1.32843613    4.17118957
O      9.79801293    0.71881054    3.13560367
O      7.85719903    7.62528255    4.82562510
O      7.57460832    8.35296828    2.23541589
O      3.14855711   10.38460219    2.37321242
O      7.26319095    2.43000105    4.99880679
O     -3.74788366   11.92686705    3.39750784
O     -1.90303733   10.05748958    4.00061211
O     11.95492915    2.24946804    3.62221090
O      0.49521927    9.38930259    4.95372908
O     -1.14958589    6.05167503    6.40916723
O      2.91737052    2.09157942    2.47235336
O      9.44713667    3.29760685    3.63651604
O      7.76021405    5.03857722    4.78085559
O     -1.69121038    4.93242333    3.98074805
O     10.17489059    6.43003650    5.21448458
O     -0.02446595    3.81581766    2.41073625
O      4.86303437    8.40003980    2.16820366
O      7.08482558    3.66461457    2.58321385
O      6.12054755    6.06377367    2.03052642
O      2.18500771    7.93255342    1.71605916
O      6.53115286    7.79480103   53.92202183
O      3.82889295    9.31460575    0.02500000
O     -1.28106524    7.53124466    4.23110038
O     -0.23811849    8.86995184    2.25514133
O      2.48193381    4.71078292    1.88202416
O      4.70296601    3.88411174    1.51139186
O      0.27215566    6.30375598    1.92979396
O      2.97110705    2.73939425   53.91300000
O      6.73650358    4.40393965   53.98121200
O      0.59633635    4.45656479    0.06032076
O      4.84165728    8.53877656   51.78449095
O      0.29418470    8.17061142   53.84496047
O      5.22472034    5.95814587   52.38580306
O      2.30567287    7.98535112   52.11267359
O      7.24702176    7.56988533   51.51973100
O      3.27891176   10.58292631   51.79609407
O      4.73888058    3.37976949   52.17157100
O      2.19093178    4.24763282   51.85016171
O      0.42570018    6.15528586   52.02989085
O      2.82436819    1.62500671   51.55615164
O      7.20027672    4.12669331   51.53671995
O     -0.13884764    8.68861409   51.41147666
O     -0.37416989    3.57167651   51.73046699
O      6.39561369    8.88130820   49.16044560
O      4.09733768   10.19519263   49.26111139
O      8.28215272    7.18945828   49.18614173
O      1.77631163   11.53062652   49.88053756
O      8.39902281    4.57787870   49.11048194
O      4.07206541    1.90968979   49.42137878
O      1.56912771    0.67272008   49.35081219
O      6.37188611    3.11604660   49.27970386
O     -0.39163622   10.02248808   49.09057224
O     -0.61188387    7.37009142   49.14910661
O     -0.48025092    2.21605590   49.32788675
O     -0.79415882    4.93978621   49.54776517
O     -5.03278112    9.45413961   50.43501071
O     10.69286273    0.47531974   50.54098146
O     -3.07266082   11.48176521   50.44508666
O      8.65527569    2.26588075   50.32099879
O     -2.43756704    9.01611035   50.19700945
O     11.09850431    3.14980404   50.43139500
O      6.27420808   11.65030750   48.81956689
O      6.25946183    0.46994830   48.85779450
O     -3.19930604    5.84405865   48.77183147
O      5.33174994    9.73062370   47.02525202
O      8.52309954    6.01268152   46.84045714
O      1.15474278   11.06406584   47.21088323
O      0.22447071    1.14948431   47.12175639
O      5.19918828    2.20907154   47.02636593
O     -1.11286258    5.57465636   47.08516518
O     -3.86651205   10.24360120   48.27557395
O     10.16512042    1.75732904   48.26229059
O      6.55092100   11.43220386   45.14975500
O      6.00616402    0.12546969   45.57363332
O     -3.06060413    5.92445397   45.34853536
O      6.48564756    8.84582081   44.88517632
O      4.09736911   10.14980024   44.67773284
O      8.44381673    7.04509431   44.50336415
O      1.70352374   11.29960502   44.57925083
O      8.66361620    4.43680123   44.64205947
O     -0.22471693    9.82513962   45.25021842
O      1.56650668    0.74406569   44.68737597
O      6.36635437    2.89614311   44.77087003
O     -0.66422837    1.82521305   44.68773348
O      4.04601056    1.56248044   44.82398287
O     -0.72468422    7.11468872   45.07766502
O     -0.86556711    4.47271574   44.77740917
O      8.65149803    9.31843056   46.17062094
O     10.38758540    0.35961037   45.89054862
O      8.49686029    2.16271851   46.17438450
O     -2.35297268    8.85833924   46.49521328
O     -3.44851297   11.40376306   46.02129036
O     11.08386509    2.84775908   46.00094279
O     -4.97033930    9.52502820   43.54920434
O     10.54549666    0.25966210   43.21696604
O      8.45955328    2.09161198   43.55282968
O     -2.24006576    8.87460360   43.81720550
O     -3.19467214   11.37346450   43.37763972
O     11.02558741    2.99686716   43.38520949
O      9.98217148    2.02989804   12.41056918
O     -3.44772666    9.57706896   41.41714748
O      9.96521057    2.02678500   41.18054320
Si     0.71770880    1.22320134    8.81714972
Si     8.36230510    8.97875260    9.18859753
Si    -3.36211487   10.05435476   10.94379564
Si     6.36126647   11.09624782    5.09442060
Si     3.59891943   11.68636346    9.25384872
Si     5.81834430    1.70225330    8.30545312
Si    -3.40712466   10.26644166    7.28770163
Si     0.84763807    1.75996994    5.58532097
Si     0.80858644   11.10478705    8.65362813
Si    -1.40637376    9.04864246    8.91379014
Si    -1.52115890    3.29969435    8.97751155
Si     9.06840252    6.21992871    8.43177702
Si    10.25869284    1.84177668    7.18971563
Si     8.27645688    3.30614576    8.87263307
Si     8.01550704    8.83215362    3.79519353
Si     3.47853788   11.27917455    3.69001760
Si     6.03582694    1.41620167    5.21988478
Si    10.16700504    2.06679213   10.84224465
Si    -3.44245239   10.52227473    4.12983791
Si     1.03507763   10.86426875    5.46758235
Si    -1.48900240    6.13867451    7.96740082
Si     3.28757059    1.30115822    3.86671623
Si    10.44786423    1.94632059    4.01749302
Si    -0.92814358    3.53724859    3.85887434
Si     8.55271098    6.31856755    5.45712531
Si     7.85242583    3.58817565    4.03722434
Si     6.18929236    7.70586606    1.55533181
Si     3.39629229    9.00781274    1.57034839
Si    -0.71141651    9.01357351    3.81835869
Si    -1.92207671    6.25546471    4.98506040
Si     3.27570284    3.32424181    1.40584982
Si     0.88069911    4.87293753    1.53387676
Si     6.19714781    4.58482567    1.54498212
Si     0.59604340    7.78092208    1.51354374
Si     5.95896139    7.43792227   52.46392597
Si     3.47178861    9.09531361   52.44736616
Si     3.12059530    3.01270582   52.32362095
Si     5.90706074    4.46208235   52.55102651
Si     0.65837230    7.67468085   52.35562015
Si     0.65394609    4.64760326   52.44316849
Si     7.57229700    8.30298325   50.08885045
Si     3.35095365   11.17573903   50.28827175
Si     3.07655328    0.84005994   50.13326849
Si     7.70711648    3.54860156   50.08449742
Si    -0.92004011    8.71768454   49.97865148
Si    -1.03866544    3.45882007   50.23658298
Si     5.60598182   10.18148479   48.54281567
Si     8.95925787    5.96465903   48.41536142
Si     0.60862543   11.33250751   48.78345376
Si     5.53505600    1.90497207   48.67021354
Si     0.12916396    0.81242534   48.69952718
Si    -1.52798213    6.01557077   48.63621867
Si    -3.62740593   10.10245942   49.84933401
Si    10.16641528    1.87541735   49.90425142
Si     5.59105125   10.15386074   45.39806946
Si     9.09868731    5.81886190   45.38479834
Si     0.50556204   11.17374030   45.70117662
Si     0.14720165    0.73633641   45.56504550
Si     5.43043629    1.72088138   45.55361351
Si    -1.48002416    5.78751099   45.56063133
Si    -3.59574554    9.90396916   46.65814859
Si     9.98251311    1.78682543   46.67977531
Si     8.06935955    8.65857419   44.79875939
Si     3.24999913   11.62660672   44.50786279
Si     7.96102750    2.90639110   44.82927790
Si    -1.32321662    8.67111768   45.16292522
Si     3.07230776    0.16031774   44.67492282
Si    12.03958622    3.05786642   44.66901969
Si    -3.40609592    9.78725342   43.10025939
Si     9.95270769    1.81738503   42.83036381
H      4.75450738    7.97704280    6.13195278
H      3.84776255    4.63624916   19.01975828
H      2.87078098    8.07095156    7.72360130
O      4.34456642    7.50228804    6.78626217
H      9.20762952    8.17266861   12.95052241
H      5.83597570    4.35923143   34.50164851
H      9.39975220    6.84752069   12.35485690
O      8.87896010    7.30836787   13.06597522
H      1.07568406    5.35484516    5.30560185
H      2.35290215    4.82517902    5.13326080
O      2.02235693    5.68485957    5.27380977
H      1.57476298    9.60086459   23.74177764
H      2.59295250    8.56775804   24.31171626
O      1.59170122    8.72408985   24.11449561
H      5.97878704    4.10115696   29.83693180
H      7.47153964    4.09319987   30.38683755
O      6.77187150    4.60008433   29.99742475
H      4.26959429   12.09202010   26.00185425
H      4.14111873   11.66221735   24.46518347
O      3.77284404   11.47586429   25.40255512
H     14.02355236   -0.67110131   52.42668996
H     14.02695971    0.81470911   52.31414818
O     13.39283662    0.04472543   52.36161460
H     -1.68007356    3.87669838   38.63865149
H     -3.07039137    4.27795830   38.26540805
O     -2.13809435    4.30551430   37.91912517
H     -0.27174468    9.45861557   25.61737383
H     -0.20042151   10.83130189   25.95869247
O     -0.61549219   10.03947891   26.31062692
H     -5.34335705   10.80357003   33.40931909
H     -4.49675484   10.53931233   34.53268832
O     -4.96451216   11.27863511   34.18584322
H      8.81831249    3.05966791   14.10655372
H      7.65660853    4.04558574   13.84739394
O      7.87539685    3.24490749   14.40700737
H      5.99435861    3.35353405   33.24572289
H      2.43509764    1.17065251   13.26878657
O      5.83293128    3.44437488   34.21998505
H      4.42585096    6.55662905    6.57520851
H      4.99651910    4.41769537    7.19392805
O      4.90797768    4.98864616    6.41812179
H      5.87514470    5.11398291    6.11500954
H     10.45259994    4.94325738   10.88251064
O     10.43872728    5.54405899   11.64051040
H      4.02563774    0.01185266   32.16367691
H      3.24965839   -0.17423136   33.44269382
O      4.08082242    0.21664014   33.13775086
H      6.64145297    2.07739989   14.10126203
H     12.20253306    0.78392995   14.93950519
O      5.70424156    1.56934460   14.08089254
H      7.73222154    6.07252036   20.85651490
H      2.15955157    8.30476672   10.03090841
O      8.67093994    6.07228096   21.13128097
H     -2.73868605    6.72361370   -0.35875875
H     -3.43076472    7.07438159    1.02090310
O     -2.54014674    7.09696870    0.53540646
H      6.96054904    6.41407249   28.54828486
H      7.12249428    7.55326583   27.34706540
O      6.84398686    6.62933830   27.54203839
H      1.33164385    8.21848763    7.88524323
H      2.30555324    7.12577222   11.11931440
O      2.17503864    8.41736039    8.26458291
H      6.42681454   12.05004590    0.71362880
H      7.38306571   11.16380141    1.49006790
O      6.40984468   11.37561129    1.42842176
H      3.83137159    4.13969065   24.51197387
H      5.37505613    3.95051240   24.91453450
O      4.61970683    3.56403451   24.37782005
H      3.56055175    5.54039571   43.59492476
H      5.01864186    5.32210876   43.88997218
O      4.34330716    5.29792587   43.08041209
H      3.28529043    5.96464261   18.35940551
H     -2.66177514    9.13670775   17.04601165
O     -3.47514201    9.07587600   16.46894416
H      5.49116179    5.97138247   18.68423995
H     -4.16552980    8.69082522   17.18280879
O      0.49857018    3.62020270   14.02169648
H      0.88903216   10.96227966   11.91651241
H      1.42485158   10.05502597   13.17631021
O      1.60952543   10.30166834   12.22177307
H      5.02349244   -0.19203790   21.60244798
H      4.13157541    0.73555600   22.48977113
O      4.36360370    0.59923290   21.55950742
H      4.24482546    7.36007376   14.18411543
H      4.26420792    7.44500788   15.75498007
O      3.78425058    7.03973465   14.96449155
H      8.73858430    2.28305403   27.57815137
H      7.51087675    1.49254652   27.15699951
O      8.18868575    2.15717630   26.79030008
H      8.09031572    4.03400018   16.76005999
H      8.75650777    4.40469417   18.17414740
O      7.96021907    4.53715394   17.60053553
H      6.11254939    2.52229037   17.87361464
H      5.30129871    3.34853239   16.78374734
O      5.22450491    2.69716907   17.52926617
H      6.31398811    8.34147069   12.73336804
H      7.19865554   10.74739364   13.31919725
O      7.03759089    9.85878381   13.78742646
H      3.42601169    7.39474023   32.27657920
H      2.37561349    7.16999955   33.37101120
O      3.19653302    7.71363916   33.16960652
H      9.08634986    2.05999806   19.89589787
H     10.26785490    1.10134220   19.88070279
O      9.25860363    1.08676115   19.96107597
H      6.04035147   11.39571857   36.31868512
H      5.12499347   12.65309699   36.28780655
O      5.13535706   11.69230289   36.01677413
H      4.23391892    9.55687759   25.02141803
H      5.04578105    8.34345060   24.23186819
O      4.17008376    8.65378669   24.71883635
H      7.64036475    7.65380915   30.94682858
H      9.15216552    7.67802128   30.38125681
O      8.53333545    8.16064950   30.97176967
H      3.27020166    9.75505962   19.16590888
H      7.51602205    7.66740287   18.50345329
O      8.21254924    8.38607177   18.56456792
H     -1.39216007    4.66676921   30.26758531
H     -1.48238297    3.39299756   31.13137153
O     -2.01258439    4.15964369   30.72190852
H      8.31000778   11.17078583   17.21544919
H      6.75397555   11.36746724   17.23917840
O      7.47666096   10.91105721   16.71723647
H      5.67330900   -0.02787083   27.93188640
H      6.57442709    0.35238625   28.99518655
O      5.99296385    0.79938771   28.21636757
H     10.57247013    4.31135698   19.25240291
H      9.47571723    4.41230288   20.32486718
O      9.90496365    3.74341187   19.74546163
H     -3.22197480   11.46422036   18.03032961
H     -3.85911899   12.57473939   17.35511788
O     -4.02396014   11.96932742   18.06202447
H     -5.45111510    9.69349604   53.57362014
H     -4.08676232   10.59518244   53.86686703
O     -5.07909246   10.59716724   53.82444509
H      3.39365624    6.00939431   29.33171463
H      3.66102196    4.54121600   29.89016681
O      3.13139949    5.37613473   29.97655553
H      1.88103554    4.93382511   33.51269388
H      0.37759558    5.48645362   33.59276348
O      1.22406030    5.56624999   33.08922120
H      8.59718986    7.08037369   24.49725376
H      9.94126977    6.58623131   23.86075278
O      9.26252257    6.31778470   24.49965070
H     -1.34355711    7.33833712   22.72673837
H     -1.30845125    6.41329674   23.89148019
O     -1.69785122    7.27092949   23.61524804
H      7.81156577    9.71059981   25.44888064
H      7.37300081    9.24307532   23.99017570
O      7.96786496    9.01556941   24.75728331
H      4.15461756    2.52031852   30.33966396
H      5.10686134    2.32572678   28.84096352
O      4.74920446    2.94043881   29.54161883
H      0.42252960    7.06482835   25.95098902
H      0.10893065    7.81404040   27.29234760
O      0.58932925    6.97745615   26.95747347
H     12.21317269    0.50147109   22.31960676
H     12.75038267    0.62842254   23.92669380
O     12.06629158    0.20390514   23.33188803
H      0.89518709   11.11267581   21.24644593
H     -0.23017126   10.02228416   21.34832735
O      0.01841128   10.95066314   21.70324637
H      1.21959910    9.82697017   15.31033488
H      2.46380736    9.23961949   14.56361592
O      1.48119504    9.17592153   14.67590632
H      5.28910309    9.71388061   14.08242136
H      4.21518863   10.11938978   12.96459901
O      4.31811743    9.74629328   13.83370090
H      8.82129653   11.77985726   14.96428362
H      2.95406970   10.51925119   17.84353850
O      3.64533319   10.44297240   18.56747529
H     -4.05183021   10.79431955   13.92407625
H     -1.71906931   14.38256222   14.07462201
O     -4.46577953   11.73713272   14.05109074
H     -2.58496909    9.77101175   24.35256794
H     -4.17328283    9.90752256   24.16829993
O     -3.29946985   10.41979730   24.25846237
H     -0.60440839    4.28635636   23.82571613
H     -1.03876853    4.61557688   25.43854720
O     -0.45616698    4.91003554   24.55788718
H      1.26238031   11.66937966   24.10881893
H     -0.13285311   12.26040039   24.26458875
O      0.65483320   12.09211007   24.78521125
H      9.02926166    5.05534023   27.22030248
H      9.69828913    5.64679261   25.98730009
O      9.86756811    5.23070526   26.87241473
H     -0.66299233    4.07459309   17.17178764
H     -0.68895239    3.85548169   18.71649499
O     -0.40517553    3.45804025   17.88027851
H     -5.09946021    9.14757624   20.18125408
H     -5.57211247   10.68695560   20.49059416
O     -4.89011355    9.94311547   20.81638450
H      2.67442151    1.40205277   31.73252495
H      1.84894439    2.53302035   31.36295046
O      2.74206833    2.40787597   31.67135340
H     10.79754886    1.36665946   31.89676430
H      9.87417646    2.06571729   32.99353688
O      9.86916587    1.46190886   32.24884377
H      7.88969413    4.71770516   40.89349271
H      8.57339912    3.97419923   39.60959333
O      8.76861705    4.37377240   40.54376561
H     10.88076523    2.70699086   34.96124634
H      9.38988573    2.71954295   35.05093391
O     10.11966701    3.22352160   34.59409589
H     -1.41236195    6.39059482   19.05735147
H     -2.96263905    6.39414914   19.09236510
O     -2.18181047    5.92403866   18.74022427
H      4.25057702    3.27882802   11.96241623
H      4.42839570    3.43449790   10.45550656
O      4.51609059    3.91472510   11.28139877
H      2.17601656    5.70055975   26.08142812
H      0.59533188   -0.20191699   11.60244757
O      2.14701586    5.47771266   25.13394354
H      2.55424019    5.21510263    7.17623733
H      1.48824784    4.45736674    7.93559921
O      2.29578558    4.95225378    8.12919425
H      6.22867395   10.10181603   32.42675280
H      7.52171766    9.37518553   31.66810512
O      7.07014852   10.23969466   31.92380790
H     -3.30666291    6.21458285   41.01366771
H     -1.72951252    6.57835282   41.16937748
O     -2.66612682    6.91518189   41.31322522
H      7.09854345    9.58692495   21.95867141
H      6.23970564   10.52599668   23.07453402
O      6.37232887    9.58815341   22.71292685
H      6.82843927    0.52271028   52.27601081
H      5.75207966   -0.21785032   52.91435683
O      5.86949010    0.46184251   52.28658635
H      3.83748613    3.13997554   34.36122961
H      2.88066017    3.17823669   33.08603238
O      3.04248366    3.59671639   33.95843841
H     -0.09163114    8.26112688   18.90684869
H      0.73791105    7.08365922   18.23953800
O      0.23960275    7.33592331   19.05528484
H      3.44591475   11.19348450   15.43080878
H      3.45345724   12.34668560   16.38161773
O      2.87708679   11.69844890   16.01867662
H     -0.05762237    5.30833490   13.00501809
H     -6.50315080   10.12301419   14.78153619
O     -0.52551321    5.80247755   12.30451943
H     -0.03194502    1.17089939   25.64722044
H      1.27525554    1.22613759   24.73571567
O      0.40087340    0.82958764   24.84977540
H      2.44395116    2.10870521   11.81847705
H     -0.03667336    5.76485906   11.50315609
O      2.45915800    2.10513890   12.83975034
H      1.16203093    7.69227970   15.85398355
H      0.94233886   11.39245350   18.79872684
O      1.49572315    7.01921712   16.43158883
H     -3.10629407    4.82809239   52.27972625
H     -3.32145615    6.26485473   51.53480715
O     -2.68435293    5.74203551   52.00488839
H      2.89128337   10.66666577   26.67809935
H      1.78565798   10.76656241   27.84557039
O      2.51540418   10.20282405   27.47465732
H      2.31725478    4.81919932   11.13134180
H      2.13249630    5.56326062    9.76765204
O      1.97840688    5.70177750   10.78894032
H      1.97769823    9.51889510   11.60336189
H      6.25007319    5.93878712   12.55373213
O      2.55195863    8.17152165   10.97258773
H     14.71231981    2.85035657   13.48765873
H      6.92042626    5.71620603   17.89758387
O      6.32780849    6.38913753   18.41050652
H      8.77346014    2.93314543   23.26117901
H      7.74403157    4.04529017   23.29679468
O      8.34921513    3.58971774   22.66128640
H      1.22646904    4.92213027   21.07736707
H      1.87978167    3.77831869   20.37296776
O      0.97252225    4.26308751   20.38572032
H      4.66795157    5.33482206   15.35165247
H      5.74676682    4.63818117   14.57742515
O      5.33864475    4.68841047   15.47591883
H     12.85793478   -0.13091521   11.38397511
H      8.73882286    5.61079830   22.01686640
O     13.54542003   -0.10915469   12.12210874
H     -6.46108519   11.13989159   30.40056452
H     -6.81158973   11.73893239   29.12216902
O     -6.22644032   11.91391680   29.84740441
H      9.56887064    2.06342620   25.22814204
H     10.37867212    1.52275053   23.96881157
O      9.85800020    2.27980244   24.29268726
H     10.91532049    0.67666835   54.43758637
H     11.86046664    0.87748511   53.28888021
O     11.35334554    1.37248246   53.94842838
H      5.11535930    0.54136492   15.45765146
H      4.83799764    1.02209523   16.94260889
O      5.03276630    0.16440717   16.40904675
H      5.94128104    2.11240734   21.28647189
H      7.14472131    3.11420409   20.96465642
O      6.20710304    2.78450795   20.57963058
H      3.93552435    8.09293243   10.28748765
H      5.37222059    8.25874483    9.47115455
O      4.87490061    7.74803592   10.18502326
H     10.08188219    2.86736512   53.79154259
H      8.67204407    3.75086394   53.64964927
O      9.61252267    3.65168384   53.37069719
H     13.10776020    0.69717814   30.92502064
H     12.70281759    1.07059349   32.36161650
O     12.66663318    1.42872880   31.45338900
H      3.55422029   -2.38086519   19.92548972
H      3.39155664    2.30867096   19.12288987
O      3.30854175    2.75283296   20.03398893
H     -1.59722851    4.17657962   21.56976111
H     -0.10706334    3.64628460   21.73387261
O     -1.01679856    3.70991800   22.17223957
H      7.12158174    2.10907535   35.14362618
H      8.09777352    0.90067175   35.58774428
O      7.82309375    1.78535286   35.76408606
H     -2.12097576    4.66337283   27.35745730
H     -0.52006541    4.95027541   27.67282390
O     -1.16006831    4.38710565   27.18293399
H     -1.81507110    5.14011332   32.16883986
H     -2.36553739    5.58213815   33.64601928
O     -1.61471232    5.46981510   33.04074910
H      6.04405323    8.04628571   17.02696085
H      4.89025157    9.11372768   17.00619885
O      5.48113972    8.65050566   16.40107383
H      1.78924317    0.13457798   19.63245076
H      1.57602609    1.31176396   20.49281193
O      1.05094539    0.49151799   20.21121394
H     -0.39279722    8.68795947   32.46043448
H      0.13301668    7.29034315   32.47587844
O      0.08870745    8.04080352   31.90059930
H      0.41182146    7.78877849   20.67180827
H      0.64755894    8.11093949   22.20502732
O     -0.00268816    8.17916564   21.49417345
H      2.56192442    6.48996724   22.93549087
H      3.64163624    5.63630646   21.85545789
O      2.60629735    6.13720725   21.99645839
H     -2.16541596    2.72827108   40.63537610
H     -0.69580559    3.24904742   40.68827642
O     -1.51139174    3.38154603   40.24226366
H      5.48597622    4.36940240   21.21468879
H      5.10089250    4.57951432   22.70224094
O      5.35833311    5.18203853   21.86564140
H     -3.72538764    8.36119819   27.93292668
H     -3.39814672    6.91049850   28.59883983
O     -3.69043687    7.84101734   28.79685069
H      8.36998847    2.91739018   37.48022616
H      8.53748500    4.42141270   37.05900750
O      8.42059728    3.84245038   37.80607672
H      2.51305574   12.16417214   21.41205140
H      3.07169961   10.72925220   21.11045272
O      2.76910788   11.33081314   21.85968971
H      1.25521006    2.31132366   34.57752685
H      0.87919268    0.74256908   34.35484466
O      0.49552902    1.62714627   34.54932782
H     -2.30582246    8.00345922   14.94743516
H     -1.08868788    7.64121553   14.06083309
O     -1.55444020    8.40675281   14.44742179
H      4.94430185   11.42558828   18.29021708
H      5.34912545   12.92974192   18.36110642
O      5.64271731   12.10417806   17.98167873
H      6.29389778    6.49958419   33.67264079
H      4.86704706    6.25789751   34.28197904
O      5.81467625    6.17489579   34.51205099
H      7.50919453    7.38305976   12.37334605
H      5.57824886    7.80804524   11.06388638
O      6.53026382    7.68081440   12.11076532
H      6.57992255    9.87211765   28.35246083
H      7.68328556    8.87336165   29.03813576
O      7.38189357    9.32430152   28.21650068
H      3.20993567   10.61257389   31.91934569
H      2.63063293   12.05371962   31.88680284
O      2.70303560   11.19217026   31.27953489
H      1.19582477   11.18471476   30.53622748
H      0.02761858   10.47976398   29.67408864
O      0.44086229   11.36824267   29.90329828
H      6.85682977    4.97740845   26.35816595
H      7.24725537    3.48665120   25.82155618
O      6.83505030    4.36477115   25.58939575
H     -2.51806935    9.83210543   26.76952758
H     -3.92216705   10.43878380   26.88759470
O     -3.28343076    9.86042551   27.37739204
H     15.05914165    4.99168682   24.90949416
H     13.39142774    3.18039636   14.27361193
O     12.08959399    1.52423664   14.23449206
H      3.89771691   11.19732725   29.92483427
H      3.85527502   10.52811728   28.67966709
O      4.54539896   10.87957248   29.25062318
H     -0.12397453    5.76878512   15.82910305
H     -1.39997134    6.00069554   16.65812947
O     -1.03847803    5.48560250   15.91691189
H      2.56587907    3.66732553   41.15250254
H      2.03015407    2.46126823   41.88981152
O      1.75665676    3.05844281   41.22692259
H      9.54373676    2.25652183   30.08326677
H     10.40402161    3.42823539   29.33439953
O      9.80129412    2.70470528   29.24228287
H     -2.79186249   10.97216907   30.25681517
H     -4.26336521   11.57213681   30.11426677
O     -3.45216479   11.59728108   30.70803380
H     12.59901881    2.19737222   21.12691011
H     13.16884179    1.05805220   20.28485672
O     12.31498103    1.43688364   20.56758694
H     -2.08410388    9.57879638   -0.25326098
H     -1.90495735   10.24311299    1.05046647
O     -2.23720733   10.41973347    0.15800849
H      1.40876562    5.34483614   29.91151460
H      0.68600860    5.41828124   31.20817277
O      0.49740834    5.17321115   30.27725326
H      4.87418332   10.84686976   34.10459449
H      4.35244431    9.51458259   33.67221243
O      4.77668074   10.33121435   33.25703230
H     -3.08648452    8.36630270   35.10290951
H     -2.43170950    9.50437908   34.21719147
O     -3.25470263    9.10180076   34.54257165
H     12.63050029    1.13126580   13.48372030
H     -2.35793782    5.61713368   11.95113429
O      3.98596289    5.64323647   18.99513036
H     -1.59245511    9.94524758   19.80668147
H     -6.08943542    9.07746854   18.11435360
O     -2.32039769    9.56213038   19.36386002
H     -3.00425701    6.33581286   37.64598722
H     -3.62605075    7.71812856   38.16778133
O     -3.78858014    6.93407683   37.59513766
H      5.56855355    7.37538393   31.14714951
H      6.21330609    5.95389109   31.09242041
O      6.22936080    6.82913555   31.59501361
H      5.90530184    4.42921455   12.18928893
H      2.22478319    6.56233467   15.99981899
O      6.49735408    5.01405013   12.84299162
H      3.25435721    7.68584325   20.73773250
H      4.29148666    8.63697042   20.96012667
O      3.43671563    8.55791085   20.47982528
H      4.49416636    8.01222378   29.32176125
H      4.91001500    9.40174450   30.06330435
O      4.78908975    8.46308743   30.19471508
H      3.93146189    7.08012673   27.20354865
H      2.77425669    7.68287859   28.13825234
O      3.67959056    7.30061320   28.16910433
H     -1.24962005   11.74664532   11.80123654
H     -0.66721050   12.45711917   13.13339538
O     -0.38755308   11.94850930   12.27861668
H     10.88440700    1.88569834   27.52358132
H     11.48649800    0.62524370   28.05152008
O     11.43500442    1.15626513   27.23786397
H      1.26841332    3.34728470   17.45573495
H      2.24436170    3.47681187   16.19797889
O      2.26680679    3.27683687   17.15210613
H      3.90732448    1.98609443   24.72927143
H      3.30309240    0.51003154   24.41618712
O      3.30690716    1.41250710   24.14839214
H     -0.76762056    8.62235486   30.31637009
H     -2.04023534    9.01389919   29.39749690
O     -1.27611818    9.36698632   30.01232551
H     -2.90705597   14.33830237   20.71367435
H     -0.14552764   11.35693722   17.68238770
O      0.34313752   10.75421272   18.30215342
H     11.80540162    2.93273590   36.93773032
H     13.03901124    2.07959097   35.96263892
O     12.13822063    2.17775570   36.32475628
