674

H        6.94300000       4.08400000      13.83700000
H        0.04400000       8.28500000      13.91300000
O        6.73900000       3.39500000      14.49000000
O        0.64500000       8.69200000      14.55800000
Si       6.86500000       3.79800000      16.05700000
Si       0.44000000       8.29300000      16.11800000
O        0.65500000       6.66900000      16.33600000
O        6.30400000       5.33100000      16.31000000
O        8.41500000       3.75200000      16.61600000
O       -1.06200000       8.68300000      16.65700000
O        6.01800000       2.68500000      16.91700000
O        1.55600000       9.14300000      16.95300000
O        7.99900000       7.17400000      17.30000000
O       -1.23600000       5.16500000      17.43000000
O       -3.56500000       8.51400000      17.48600000
Si       6.62400000       6.34800000      17.55300000
Si       0.26500000       5.75600000      17.63700000
O        5.42800000       7.43400000      17.73200000
O        8.86000000       1.41700000      17.81400000
O        3.76200000       3.66800000      17.81600000
Si      -2.09800000       9.11300000      17.83700000
O        1.29100000       4.51100000      17.87900000
Si       9.07900000       3.02100000      17.92300000
O       -2.24100000      10.72800000      17.94200000
O       10.66900000       3.37200000      17.98800000
Si       4.97400000       2.65600000      18.17400000
O        0.02700000      12.05300000      18.22000000
Si       9.32300000       7.35300000      18.23100000
O       10.10800000       5.93100000      18.25100000
O        3.19700000       6.19100000      18.43800000
Si      -2.47300000       4.82300000      18.42800000
Si       2.07500000       9.53700000      18.44800000
O        4.35700000       1.17000000      18.41600000
O        2.46200000      11.10600000      18.56500000
Si       2.74200000       4.63900000      18.62000000
Si       8.18000000       0.27200000      18.74300000
Si      -1.50800000      11.92500000      18.76300000
O        3.47200000       8.80500000      18.76500000
Si       4.22600000       7.38800000      18.82600000
O        0.35600000       6.68200000      18.98200000
O        6.69900000       5.51600000      18.95700000
O       -1.62800000       8.46700000      19.28100000
O        8.41000000       3.54900000      19.32500000
O        0.91100000       9.21100000      19.56900000
O        5.76000000       3.09500000      19.55700000
O        8.94500000       7.79100000      19.75600000
Si      -0.15200000       7.98700000      19.79800000
Si       6.98300000       4.16100000      19.80500000
O       -1.95100000       4.82000000      19.97900000
O        2.73800000       4.20700000      20.19100000
O        8.09000000       0.77400000      20.29300000
O        4.76900000       7.18400000      20.35400000
O       -1.55000000      11.58200000      20.35300000
O       -0.25500000       7.53400000      21.33500000
Si       9.18900000       7.47800000      21.34000000
O        7.06900000       4.55800000      21.35900000
Si      -2.64800000       4.87700000      21.45700000
O       10.02100000       6.09200000      21.54700000
O       10.36700000       3.44200000      21.73000000
Si       2.58800000       4.56800000      21.77300000
Si       4.04800000       7.37200000      21.80700000
O        3.01900000       8.62300000      21.83400000
Si       8.15800000       0.29600000      21.84800000
Si      -1.51000000      11.93000000      21.94400000
O       -3.77900000       8.74800000      21.99900000
O        7.71300000       7.34300000      22.01300000
O        2.36900000      11.07100000      21.99300000
O        3.15300000       6.05200000      22.13500000
O        1.00900000       4.42400000      22.15100000
O        4.30000000       1.14600000      22.27000000
O        6.67000000       0.02600000      22.45000000
O       -1.52800000       5.09200000      22.60800000
O        3.43800000       3.55200000      22.69400000
O        8.87800000       1.45300000      22.71100000
O       -2.14900000      10.68600000      22.75500000
Si       2.29200000       9.67900000      22.83000000
O        5.19900000       7.70300000      22.89900000
Si      -0.15200000       7.86100000      22.93400000
Si       7.00800000       4.27500000      22.96700000
Si       9.59900000       2.85900000      23.04900000
O        0.76500000       9.18600000      23.13700000
Si      -2.79200000       9.26100000      23.19100000
O        6.02100000       3.01200000      23.20600000
Si       4.49300000       2.45600000      23.23100000
Si      -0.04200000       4.99800000      23.26100000
Si       6.70300000       7.20500000      23.27900000
O       -1.64100000       8.15400000      23.50000000
O        8.48400000       3.93600000      23.55100000
O        0.41300000       6.52400000      23.68800000
O        6.53900000       5.63600000      23.72500000
O       10.64600000       2.66800000      24.27000000
O        2.95700000       9.83500000      24.30400000
O        7.25400000       8.12100000      24.50400000
O       -0.10200000       4.04500000      24.57100000
O       -3.57700000       9.40900000      24.60400000
O        4.20500000       2.12200000      24.80100000
O        5.49700000      10.12700000      24.82200000
O       10.56700000       0.09500000      24.95900000
O        1.57100000       2.00600000      25.00300000
Si       4.01200000      10.63400000      25.23800000
O       -3.56500000      11.96700000      25.33700000
O       12.77700000       1.58200000      25.32500000
Si      11.14200000       1.57000000      25.35300000
Si       6.80800000       9.39000000      25.42300000
O        7.96000000      10.54400000      25.46400000
Si       0.18800000       2.72500000      25.47300000
Si       2.97400000       1.42700000      25.60300000
Si      -4.17200000      10.49300000      25.64500000
O        3.66200000      10.28600000      26.79400000
O       10.58800000       1.98900000      26.83600000
O        6.52400000       8.81100000      26.91800000
O        0.27600000       3.24300000      27.02000000
O       -3.80300000      10.02400000      27.16900000
O        3.11700000       1.77700000      27.18300000
Si      10.99400000       1.53400000      28.35500000
Si       3.82100000      10.59200000      28.38700000
Si       6.61200000       9.29700000      28.47400000
O       12.61900000       1.51200000      28.50400000
Si      -0.00600000       2.69300000      28.52900000
O        7.74200000      10.47300000      28.63700000
Si      -4.37700000      10.48400000      28.63400000
O       10.40900000       0.05200000      28.67800000
Si       2.77500000       1.43200000      28.73900000
O        5.20800000       9.95400000      28.96600000
O       -3.82000000      11.96600000      29.00400000
O        1.31000000       1.99100000      29.16000000
O        2.59600000       9.89400000      29.19900000
O        6.96500000       7.97100000      29.34400000
O       10.41900000       2.62900000      29.39600000
O       -0.48500000       3.98100000      29.40700000
O        3.87700000       2.18100000      29.65100000
O       -3.89900000       9.41000000      29.75000000
O        0.23100000       6.46100000      30.23500000
O        6.38300000       5.52900000      30.29400000
O       -1.72900000       8.14800000      30.45700000
O        8.44900000       3.93400000      30.41100000
Si       6.82500000       7.06100000      30.68200000
Si       0.06900000       4.88000000      30.64700000
O        0.72000000       9.08500000      30.78200000
Si       2.25200000       9.64000000      30.77600000
Si       9.58100000       2.82400000      30.77000000
O        6.04800000       2.86400000      30.80900000
Si      -2.84000000       9.22800000      30.96100000
Si      -0.24400000       7.80300000      31.02200000
Si       6.96500000       4.18500000      31.02900000
O        1.55900000       4.35000000      31.00500000
Si       4.51100000       2.40300000      31.13000000
O        8.88600000       1.42400000      31.18900000
O       -2.14100000      10.64000000      31.30800000
O        8.27700000       6.98100000      31.41600000
O        0.07700000      12.06200000      31.52200000
O        3.26000000       8.59700000      31.47300000
O        5.73300000       7.71500000      31.70300000
O        3.64100000       6.03600000      31.49500000
O        2.45000000      10.98700000      31.67400000
O       -0.97100000       4.75100000      31.89600000
O       10.53500000       3.33300000      31.99500000
Si       8.25400000       0.18900000      32.01100000
O        4.40700000       1.03700000      32.01600000
Si       2.74900000       4.76700000      32.04200000
O        3.77600000       3.50700000      32.05000000
Si       4.17700000       7.44000000      32.10300000
Si      -1.39900000      11.80200000      32.15500000
O       -3.60300000       8.62800000      32.28100000
O       10.47400000       5.97300000      32.51700000
Si       9.40600000       7.19900000      32.54300000
O       -0.30800000       7.48700000      32.62700000
Si      -2.40800000       4.59300000      32.63800000
O        7.10900000       4.47300000      32.62500000
O        8.31700000       0.55300000      33.59500000
O        2.12400000       5.15600000      33.46600000
O       -1.29800000      11.30300000      33.70300000
O        4.07800000       7.49900000      33.73700000
O        8.70500000       7.31600000      34.04300000
Si      -0.16900000       7.88700000      34.17500000
Si       7.00100000       4.02600000      34.17400000
O       -2.07400000       4.27700000      34.21400000
O        1.00600000       9.01600000      34.36800000
O        6.04800000       2.71100000      34.40900000
O       -1.60600000       8.47700000      34.68700000
O        8.52000000       3.61800000      34.67500000
O        0.17000000       6.58600000      35.07700000
O        6.45700000       5.28700000      34.99400000
O        3.48100000       3.26000000      34.99700000
Al       2.50400000       4.62500000      35.05500000
Si       8.32500000       0.18300000      35.17600000
Si      -1.34600000      11.80300000      35.25900000
Si       4.15500000       7.52300000      35.33900000
O        4.37300000       0.94300000      35.48900000
O        2.47200000      10.92900000      35.46300000
Si       4.78900000       2.52100000      35.47400000
Si       9.38300000       7.28200000      35.50400000
O       -3.29700000       6.11300000      35.66400000
Si       1.82200000       9.46500000      35.72300000
O        3.61000000       5.95400000      35.84000000
Si      -2.47600000       4.69700000      35.73700000
O        0.17000000      12.12700000      35.76600000
O        9.08000000       1.34900000      36.01300000
O        3.05600000       8.47200000      36.04000000
O       -3.80600000       8.69400000      36.06800000
Si      -2.20100000       9.05100000      36.09900000
Si       8.93200000       2.96700000      36.12700000
O        1.36000000       4.61500000      36.35000000
O        5.55700000       7.70500000      36.07300000
O       -1.99000000      10.64200000      36.20300000
Si       0.21700000       5.71900000      36.47800000
Al       6.43800000       6.24700000      36.40800000
O       10.40800000       3.55800000      36.50100000
O        8.15700000       6.93100000      36.64000000
O       -1.21900000       4.98500000      36.71900000
O        0.83000000       9.40300000      37.02100000
O        5.26500000       2.96300000      36.97800000
O        7.89600000       3.39400000      37.30100000
O       -1.55500000       8.32700000      37.41600000
O        0.55200000       6.76400000      37.71400000
O        6.18300000       5.34800000      37.86600000
Si       6.37900000       3.72500000      37.89100000
Si       0.01700000       8.30400000      37.93300000
O        6.21200000       3.10600000      39.39400000
O        0.18700000       8.76000000      39.48500000
H        6.63700000       3.58600000      40.12000000
H        0.04800000       8.08100000      40.16300000
H        3.42500000       5.93600000      36.80400000
H        8.45900000       7.02600000      37.56600000
O        9.36100000       5.62300000       1.59500000
H        9.67500000       4.85800000       2.07800000
H        9.80200000       6.36600000       2.00800000
O        3.90600000       4.81800000      14.30400000
H        4.09500000       4.65900000      13.37900000
H        2.95100000       4.86500000      14.34900000
O        9.22400000       6.56300000      27.88700000
H        9.78700000       6.34900000      27.14300000
H        8.47300000       5.97700000      27.79600000
O        8.55600000       8.60100000       6.72700000
H        8.20600000       8.77500000       7.60100000
H        7.85900000       8.87400000       6.13100000
O        6.97500000      10.18700000      20.67600000
H        6.53200000      10.00600000      21.50500000
H        6.41100000       9.79300000      20.01100000
O        5.52900000       4.99300000       8.29000000
H        6.48000000       5.06900000       8.20600000
H        5.31600000       5.49900000       9.07400000
O       -0.74700000       5.75800000      12.36900000
H       -0.34700000       5.34100000      13.13200000
H       -0.24100000       6.56100000      12.24200000
O       -3.27600000       8.37300000      41.20000000
H       -2.66200000       8.63100000      40.51200000
H       -2.95000000       8.80800000      41.98800000
O        6.38500000       9.74200000      33.93200000
H        6.64300000       9.19600000      34.67600000
H        5.48200000       9.99600000      34.12300000
O        5.57200000      11.80600000      31.79000000
H       12.85800000       0.18700000      32.27400000
H        5.26000000      11.16100000      32.42600000
O       -1.89800000       9.52900000      12.15300000
H       -2.69500000       9.03100000      12.33300000
H       -1.25100000       9.17300000      12.76300000
O        8.58800000       7.07700000      47.88300000
H        8.42500000       6.48000000      47.15200000
H        7.80800000       7.63100000      47.91900000
O        7.14600000       6.09900000      41.25400000
H        7.46800000       6.90200000      40.84500000
H        7.11800000       6.30100000      42.19000000
O       -0.43100000      11.79700000      28.19000000
H       -0.75700000      11.16000000      27.55300000
H       -1.16900000      11.94200000      28.78200000
O       -1.25700000      10.59100000      42.20100000
H       -1.90200000       9.93900000      42.47400000
H       -1.21700000      11.21000000      42.92900000
O       -0.56700000       1.86600000      38.38200000
H       12.47400000       1.35800000      37.99600000
H       -0.65200000       2.73600000      37.99100000
O        2.45000000       6.75700000      27.92100000
H        1.56500000       7.06100000      28.12300000
H        2.98400000       7.55100000      27.92600000
O        6.79000000       6.22800000      13.01400000
H        6.88200000       5.33300000      13.34000000
H        6.42500000       6.71700000      13.75200000
O        2.25700000       5.75100000      45.61300000
H        2.89000000       5.63400000      46.32100000
H        1.55000000       5.14000000      45.82000000
O        4.06200000       1.51900000      42.34300000
H        3.38700000       0.88800000      42.09300000
H        3.59100000       2.19300000      42.83300000
O        3.63300000       0.11200000       2.65200000
H        4.52100000       0.44800000       2.77400000
H        3.42900000       0.30000000       1.73500000
O        5.85400000      10.15100000      38.40700000
H        5.06000000       9.61900000      38.46400000
H        6.53900000       9.53400000      38.15000000
O        3.57900000       4.88500000      10.77100000
H        3.82400000       5.22200000      11.63300000
H        4.03300000       4.04400000      10.70500000
O        5.68100000       0.16700000      39.50100000
H        4.77600000       0.00400000      39.23300000
H        5.83800000       1.08300000      39.27000000
O        6.46600000       4.74900000      48.21400000
H        5.80300000       4.87400000      47.53500000
H        7.03100000       4.05500000      47.87300000
O        0.49900000       8.26500000      44.52000000
H        0.34500000       8.99700000      43.92300000
H        1.07500000       8.62300000      45.19600000
O        1.27300000       2.49100000      15.49400000
H        1.29600000       3.43800000      15.36000000
H        0.39300000       2.31700000      15.82700000
O        4.88200000       9.05200000       9.02100000
H        4.56200000       8.72300000       8.18100000
H        5.48700000       8.37700000       9.32900000
O        1.37600000       8.76100000      51.20000000
H        0.91200000       8.39900000      50.44400000
H        0.69700000       9.20300000      51.70900000
O        5.71500000       5.28500000       3.57900000
H        4.89200000       5.75900000       3.70400000
H        5.90400000       4.90300000       4.43600000
O       -4.38300000      11.36800000      33.70400000
H       -3.51700000      11.62200000      34.02300000
H       -4.76200000      10.85600000      34.41800000
O        0.45300000      11.20600000      44.80300000
H        1.05900000      11.52100000      44.13200000
H       -0.22900000      10.74500000      44.31400000
O        4.75000000       1.98700000      45.44100000
H        3.85200000       2.23800000      45.22600000
H        5.21600000       2.81900000      45.53200000
O        4.45400000       0.55400000      12.88700000
H        3.61300000       0.09700000      12.86400000
H       -1.56100000      12.02200000      13.13300000
O        8.50300000       2.49800000      53.89300000
H        7.83700000       2.28200000       0.55600000
H        8.01600000       2.91000000      53.18000000
O       -0.47700000       5.41100000      46.88200000
H       -1.06200000       5.86400000      46.27500000
H        0.12400000       4.92400000      46.31900000
O        6.83700000       8.02900000      51.09800000
H        6.44500000       7.24400000      51.48000000
H        6.69900000       7.93200000      50.15600000
O        9.26200000       5.78300000      51.45200000
H        9.58400000       6.13900000      52.28100000
H        8.52300000       5.22800000      51.70100000
O        7.59200000       1.59800000      25.50300000
H        8.31700000       2.22000000      25.44800000
H        6.93500000       1.94100000      24.89600000
O        1.62100000       8.39700000      10.76700000
H        2.53700000       8.27600000      11.01900000
H        1.65300000       8.56700000       9.82500000
O       12.92300000       1.34900000      21.45400000
H       -0.75000000       2.21600000      21.85300000
H       13.28200000       0.75000000      22.10800000
O       -4.18100000      11.21100000       6.14200000
H       -4.73400000      11.96500000       6.34900000
H       -4.79900000      10.50500000       5.95400000
O       -2.62600000       7.29100000       7.16400000
H       -3.26500000       6.58200000       7.09100000
H       -1.94700000       7.07000000       6.52600000
O        6.41200000      11.05600000       2.77000000
H        7.14500000      10.62500000       2.33000000
H        6.59900000      10.95600000       3.70300000
O       -0.87100000      11.37200000       5.75200000
H       -0.12600000      10.77400000       5.80800000
H       -0.80200000      11.91500000       6.53800000
O        2.47000000      10.83900000       7.02700000
H        2.52700000       9.90000000       6.84900000
H        1.67900000      10.93500000       7.55800000
O        4.08100000       1.97200000       7.12600000
H        3.77600000       1.21600000       6.62400000
H        4.26200000       2.64100000       6.46500000
O        2.03000000       0.06400000      49.00200000
H       -5.33000000      11.68900000      49.37800000
H        2.57400000       0.30500000      49.75200000
O       -0.18400000       0.41700000      45.79200000
H       -6.15500000      11.89100000      45.88400000
H       13.19100000       0.49700000      46.66700000
O       -3.57600000      11.87100000      51.94200000
H       -2.72600000      12.11200000      51.57300000
H       -3.86400000      11.12600000      51.41500000
O        0.71000000       2.50400000      41.90700000
H        0.02100000       2.82700000      41.32700000
H        1.02900000       1.70800000      41.48100000
O        5.38900000       4.95700000      51.04800000
H        5.10500000       4.96900000      51.96300000
H        4.90800000       5.67500000      50.63800000
O        3.92600000      10.72300000      15.12500000
H        4.50100000      11.07600000      15.80300000
H        4.48200000      10.65700000      14.34800000
O        4.96800000       4.84700000      42.61200000
H        5.39700000       5.57000000      43.07000000
H        5.64500000       4.17400000      42.54000000
O        6.69100000       2.68500000       5.61500000
H        6.57900000       2.16200000       6.41000000
H        5.88000000       3.18700000       5.54200000
O        6.37500000       9.27200000      41.45600000
H        6.34000000       8.98100000      40.54400000
H        5.46000000       9.42300000      41.69400000
O        8.15000000       1.79900000      48.41700000
H        8.90900000       1.82000000      48.99900000
H        8.50500000       1.53600000      47.56800000
O        0.69200000       2.08200000      18.85400000
H        1.25400000       2.84900000      18.74800000
H       -0.16000000       2.44000000      19.10200000
O       -2.11400000       9.48000000       0.50100000
H       -1.48700000       9.18500000       1.16200000
H       -1.69300000       9.28000000      53.65500000
O        9.34200000       2.20100000      12.69400000
H        9.81500000       1.54200000      13.20200000
H       10.02900000       2.70400000      12.25700000
O        0.60800000       7.10400000      53.83400000
H        0.05800000       6.82100000       0.57400000
H        0.35400000       8.01400000      53.68000000
O        0.47500000       0.83100000       0.48200000
H        1.12300000       0.87900000       1.18500000
H        0.77300000       1.47200000      53.82600000
O        2.43600000       1.95500000      38.73400000
H        3.35000000       2.09000000      38.48300000
H        2.11300000       1.29600000      38.11900000
O       -4.88200000      11.39100000      43.68500000
H       -5.16300000      11.50900000      42.77800000
H       -5.53200000      11.86800000      44.20100000
O       -1.16000000       3.16200000      10.60100000
H       -0.67700000       2.36500000      10.81800000
H       -1.34400000       3.56900000      11.44800000
O       11.70400000       3.54200000      14.70800000
H       -1.53800000       3.95500000      15.40400000
H       -1.44900000       3.49300000      13.96400000
O       -2.87100000       8.59300000       3.38500000
H       -2.89800000       7.72100000       2.99200000
H       -2.96600000       8.43600000       4.32500000
O        7.39300000       3.63600000      27.52800000
H        7.22300000       2.92400000      26.91100000
H        7.73000000       4.34800000      26.98400000
O        3.83400000      11.03000000      11.91600000
H        2.97000000      10.75000000      12.21700000
H        4.14800000      11.62000000      12.60100000
O        2.02800000       4.35300000      48.25100000
H        1.48800000       4.86400000      48.85300000
H        2.92400000       4.63700000      48.43300000
O        2.53600000      11.47800000      50.24500000
H        8.80000000       0.21200000      50.25600000
H        1.89700000      10.93100000      50.70200000
O        0.62900000       1.94500000      32.62600000
H        0.99100000       1.13700000      32.26200000
H        1.37200000       2.36700000      33.05800000
O        1.30800000       4.06100000       7.72300000
H        0.37500000       3.84900000       7.75800000
H        1.50900000       4.40300000       8.59400000
O       -5.00100000      11.05600000      37.97200000
H       -4.10500000      11.33500000      38.16000000
H       -5.09200000      11.16300000      37.02500000
O        5.95500000       0.70100000      50.31600000
H        5.43800000       0.01700000      50.74200000
H        5.48500000       1.51300000      50.50900000
O       -1.22000000       6.32800000      27.02200000
H       -1.39600000       6.45200000      26.09000000
H       -0.28800000       6.52800000      27.11900000
O       -1.94100000       9.93500000      46.57000000
H       -1.64400000       9.11200000      46.18200000
H       -2.88300000       9.81500000      46.69400000
O        6.66000000       9.74300000      48.72100000
H        6.92400000      10.46400000      48.15000000
H        7.28700000       9.04500000      48.53200000
O       -3.43800000       8.12200000      49.79200000
H       -3.46800000       8.98300000      49.37600000
H       -4.15400000       7.63300000      49.38500000
O       -0.61300000       1.29200000      48.47800000
H       -0.88400000       2.21000000      48.49700000
H       12.32700000       0.80300000      48.36100000
O        9.74800000       3.69400000      39.60500000
H       10.13400000       3.39300000      40.42800000
H        9.20400000       2.96200000      39.31300000
O        5.69200000       8.31900000      44.60700000
H        5.01100000       8.47000000      45.26200000
H        5.81400000       7.37000000      44.60100000
O        2.65700000       1.97600000      10.78500000
H        2.86000000       1.05100000      10.64400000
H        3.10000000       2.19700000      11.60500000
O        2.17800000       5.99800000      50.96800000
H        1.45700000       6.44900000      50.53000000
H        2.43200000       6.58600000      51.68000000
O        4.28200000       5.31100000      25.69800000
H        4.15700000       4.36700000      25.80200000
H        3.74300000       5.70200000      26.38600000
O        8.93100000       7.00200000      43.55000000
H        8.21500000       7.06800000      44.18200000
H        9.07900000       6.06100000      43.45200000
O        3.69500000      11.16400000      46.08200000
H        4.09500000      10.46400000      45.56500000
H        2.75400000      11.06300000      45.93500000
O        2.28300000       5.24100000      39.40800000
H        1.78800000       5.45300000      38.61700000
H        2.49100000       4.31100000      39.31900000
O       10.00200000       6.01100000      25.01500000
H       -3.33700000       6.87200000      25.07400000
H        9.27700000       6.13600000      24.40300000
O       -2.95300000      10.51400000       9.57000000
H       -2.82000000       9.70800000      10.06900000
H       -2.07900000      10.89800000       9.49600000
O        2.47600000       6.74900000      42.56800000
H        2.21700000       6.15400000      41.86400000
H        3.36300000       7.02600000      42.33400000
O       12.51700000       0.08900000      42.61300000
H        5.85800000      11.31400000      42.88400000
H       12.73800000       0.57200000      43.41000000
O        1.61500000      11.89100000       1.34000000
H        7.66500000       0.41000000       1.68500000
H        1.15300000      11.06200000       1.46600000
O       11.60300000       3.90100000      51.86700000
H       11.29900000       2.99300000      51.87900000
H       10.84400000       4.40400000      51.57300000
O       11.25900000       3.64400000       7.72900000
H       11.05200000       3.64100000       8.66400000
H       10.56000000       4.16200000       7.33000000
O        3.43400000       9.66500000       4.02900000
H        3.67900000      10.44400000       4.52900000
H        3.96200000       9.71600000       3.23100000
O        5.27800000       8.15200000      14.96100000
H        4.44700000       7.78500000      14.65900000
H        5.94300000       7.55500000      14.61700000
O        7.87500000       2.04800000       9.12500000
H        7.45900000       2.51700000       8.40200000
H        7.28400000       1.31700000       9.30800000
O        2.89800000       8.43900000      47.71800000
H        3.39700000       8.19200000      46.93900000
H        2.01800000       8.10000000      47.55600000
O       -0.13100000       7.26500000      48.84800000
H       -0.38700000       6.78400000      49.63500000
H       -0.54900000       8.12100000      48.94300000
O       11.05800000       1.06900000       1.40300000
H       10.47500000       1.12100000       0.64600000
H       11.27300000       1.98000000       1.60300000
O        5.30800000       7.88400000       5.90000000
H        4.77500000       8.13600000       6.65400000
H        6.19600000       7.80200000       6.25100000
O       -1.69200000       5.30600000       4.52300000
H       -1.17000000       5.96100000       4.98600000
H       -1.05500000       4.80900000       4.01000000
O       -5.47900000      11.26100000      16.00700000
H        7.48700000      10.71900000      16.05400000
H       -5.59300000      11.91100000      16.70100000
O        8.33900000       8.46500000      10.38200000
H        8.50300000       7.81300000       9.70100000
H        7.58200000       8.95800000      10.06500000
O        1.54200000       6.54700000       4.04600000
H        2.43500000       6.40800000       4.36100000
H        1.40400000       7.49100000       4.12600000
O       11.84000000       1.01100000      34.46900000
H       12.32200000       1.51800000      35.12200000
H       11.38400000       1.66800000      33.94400000
O        4.02000000      10.57200000      53.53700000
H        3.08300000      10.38300000      53.59900000
H        4.07300000      11.33100000      52.95600000
O        8.44500000       5.29900000       8.71400000
H        8.31500000       5.56800000       7.80500000
H        8.19100000       6.06500000       9.23000000
O        1.05300000       0.45100000      12.84600000
H        2.00500000       0.51600000      12.77100000
H        0.76700000       0.12800000      11.99200000
O        4.58800000       7.34500000      39.46400000
H        4.37400000       7.30300000      38.53200000
H        3.89500000       6.84100000      39.89100000
O        0.43900000       1.19200000       3.82200000
H       -0.31800000       0.66400000       3.56700000
H        1.19200000       0.71300000       3.47600000
O        4.31400000       7.57900000      12.25400000
H        3.40400000       7.62100000      11.96000000
H        4.69000000       6.84500000      11.76700000
O        7.52300000       1.82200000      42.91800000
H        6.86100000       1.68300000      42.24100000
H        8.29600000       2.12400000      42.44000000
O       -0.04300000       3.77400000       1.76300000
H       -0.15700000       3.03300000       1.16800000
H       -0.93400000       4.04500000       1.98400000
O       10.59000000       1.01100000      40.40000000
H       11.15400000       0.68300000      39.69900000
H        9.72200000       1.07200000      40.00100000
O        2.98500000       4.11300000      53.65100000
H        2.88400000       3.29300000      53.16800000
H        2.38500000       4.03100000       0.40200000
O        5.30400000      11.70600000      18.91700000
H        4.94900000      10.98200000      18.40200000
H       11.86800000       0.32800000      18.34700000
O       -3.14800000       7.34200000      13.23400000
H       -3.62500000       7.73700000      13.96400000
H       -2.93300000       6.45900000      13.53600000
O       10.86200000       4.43600000      48.90600000
H       10.37600000       4.30800000      48.09100000
H       10.75200000       5.36500000      49.10800000
O       -6.04400000      11.09300000       8.70100000
H        7.23300000      10.50300000       8.11700000
H        7.10200000      11.81500000       8.86100000
O       -5.42000000      11.69500000      40.76300000
H       -6.21100000      11.94700000      40.28700000
H       -4.90000000      11.20800000      40.12300000
O       -5.11600000      11.81000000      22.63700000
H       -5.40500000      11.53800000      23.50800000
H       -4.27900000      11.36300000      22.51200000
O       -1.74100000       5.65200000      39.61800000
H       -2.69800000       5.68300000      39.60300000
H       -1.50700000       5.11600000      38.85900000
O       10.70700000       0.39500000       8.31700000
H       10.44500000       1.31500000       8.31000000
H       11.19800000       0.27900000       7.50300000
O        0.09400000       1.22200000       6.55900000
H       -0.09500000       1.82900000       7.27500000
H        0.71000000       1.69500000       6.00000000
O        8.35400000       0.64800000       4.67300000
H        2.35700000      12.11500000       4.48400000
H        8.71200000       1.44300000       4.28000000
O       10.67200000       2.21800000      45.02300000
H       10.90300000       1.69800000      45.79300000
H       11.49900000       2.60700000      44.73800000
O       -0.58000000      10.54800000      25.53800000
H       -1.01200000      10.06500000      26.24200000
H       -0.37900000       9.88400000      24.87900000
O        5.23200000       7.47300000      53.68800000
H        5.67000000       6.62500000      53.61200000
H        4.30000000       7.27000000      53.60500000
O        3.10000000       4.12100000       5.24500000
H        3.90500000       4.37700000       4.79400000
H        2.57500000       3.68800000       4.57200000
O        9.02200000       3.23100000       3.61200000
H        9.48800000       4.06200000       3.52000000
H        9.71400000       2.57600000       3.70400000
O        8.59200000       4.45300000      45.50100000
H        8.88700000       4.91600000      46.28500000
H        7.77300000       4.03300000      45.76400000
O        0.44500000       3.47800000      44.76900000
H        0.73200000       4.31300000      45.14100000
H       -0.01600000       3.04200000      45.48600000
O       -0.17800000       9.86700000       3.30300000
H        0.06800000       9.41100000       4.10800000
H       -0.60000000       9.19500000       2.76600000
O        7.93300000       8.15300000       3.40900000
H        7.50300000       8.58500000       4.14700000
H        7.52700000       7.28700000       3.36700000
O       11.77000000       1.12100000      16.27500000
H       11.77300000       1.77500000      16.97400000
H       11.49500000       1.60300000      15.49500000
O        1.84400000       2.22200000      51.12100000
H        1.61000000       2.62200000      51.95800000
H        1.00500000       2.05500000      50.69200000
O        5.76100000       2.03300000       0.76900000
H        6.70600000       1.97100000       0.63100000
H        5.65800000       2.03900000       1.72100000
O       -0.03900000      11.75300000      53.19800000
H        6.07000000       0.19400000      52.66500000
H       -0.17900000      10.88500000      52.81900000
O        2.86400000      10.34900000      41.91900000
H        2.43600000      10.41800000      41.06500000
H        3.73600000      10.00500000      41.72300000
O        2.73000000      11.56400000      38.45500000
H        2.96200000      10.66200000      38.67600000
H        3.56200000      12.03600000      38.47100000
O        9.10000000       6.61500000      39.27200000
H        8.52600000       6.39800000      38.53700000
H        9.69300000       5.86700000      39.34200000
O        4.43700000       2.97700000      48.55300000
H        5.31300000       3.35100000      48.65500000
H        4.57100000       2.19500000      48.01900000
O       11.12900000       0.78700000       4.81900000
H       10.74000000       1.65500000       4.92600000
H       10.49500000       0.18900000       5.21500000
O       -3.15300000       6.45900000      10.45700000
H       -2.86700000       5.60800000      10.78900000
H       -3.54800000       6.89200000      11.21400000
O        6.86400000      12.12100000      51.97500000
H        6.94100000      11.33100000      51.43900000
H        0.44300000       0.55900000      51.64400000
O        0.79400000      11.81000000      13.49000000
H        0.54600000      11.03800000      14.00000000
H        1.66900000      12.03500000      13.80600000
O       -1.02300000       5.85700000      43.08200000
H       -0.82100000       6.56400000      42.47000000
H       -0.75800000       5.05900000      42.62300000
O        2.98000000       6.98300000       7.42200000
H        2.54800000       6.43800000       6.76400000
H        3.77500000       6.50100000       7.64900000
